Resolving CUDA runtime library...
	libcudart.so => /home/ag/local/gpgpu/lib/gcc-4.5.4/cuda-4020/release/libcudart.so (0x00007fb59b1bc000)


        *** GPGPU-Sim Simulator Version 3.2.2  [build 0] ***


GPGPU-Sim PTX: simulation mode 0 (can change with PTX_SIM_MODE_FUNC environment variable:
               1=functional simulation only, 0=detailed performance simulator)
GPGPU-Sim: Configuration options:

-network_mode                           1 # Interconnection network mode
-inter_config_file   config_fermi_islip.icnt # Interconnection network config file
-gpgpu_ptx_use_cuobjdump                    1 # Use cuobjdump to extract ptx and sass from binaries
-gpgpu_experimental_lib_support                    0 # Try to extract code from cuda libraries [Broken because of unknown cudaGetExportTable]
-gpgpu_ptx_convert_to_ptxplus                    0 # Convert SASS (native ISA) to ptxplus and run ptxplus
-gpgpu_ptx_force_max_capability                   20 # Force maximum compute capability
-gpgpu_ptx_inst_debug_to_file                    0 # Dump executed instructions' debug information to file
-gpgpu_ptx_inst_debug_file       inst_debug.txt # Executed instructions' debug output file
-gpgpu_ptx_inst_debug_thread_uid                    1 # Thread UID for executed instructions' debug output
-gpgpu_simd_model                       1 # 1 = post-dominator
-gpgpu_shader_core_pipeline              1536:32 # shader core pipeline config, i.e., {<nthread>:<warpsize>}
-gpgpu_tex_cache:l1  4:128:24,L:R:m:N:L,F:128:4,128:2 # per-shader L1 texture cache  (READ-ONLY) config  {<nsets>:<bsize>:<assoc>,<rep>:<wr>:<alloc>:<wr_alloc>,<mshr>:<N>:<merge>,<mq>:<rf>}
-gpgpu_const_cache:l1 64:64:2,L:R:f:N:L,A:2:32,4 # per-shader L1 constant memory cache  (READ-ONLY) config  {<nsets>:<bsize>:<assoc>,<rep>:<wr>:<alloc>:<wr_alloc>,<mshr>:<N>:<merge>,<mq>} 
-gpgpu_cache:il1     4:128:4,L:R:f:N:L,A:2:32,4 # shader L1 instruction cache config  {<nsets>:<bsize>:<assoc>,<rep>:<wr>:<alloc>:<wr_alloc>,<mshr>:<N>:<merge>,<mq>} 
-gpgpu_cache:dl1     32:128:4,L:L:m:N:H,A:32:8,8 # per-shader L1 data cache config  {<nsets>:<bsize>:<assoc>,<rep>:<wr>:<alloc>:<wr_alloc>,<mshr>:<N>:<merge>,<mq> | none}
-gpgpu_cache:dl1PrefL1                 none # per-shader L1 data cache config  {<nsets>:<bsize>:<assoc>,<rep>:<wr>:<alloc>:<wr_alloc>,<mshr>:<N>:<merge>,<mq> | none}
-gpgpu_cache:dl1PreShared                 none # per-shader L1 data cache config  {<nsets>:<bsize>:<assoc>,<rep>:<wr>:<alloc>:<wr_alloc>,<mshr>:<N>:<merge>,<mq> | none}
-gmem_skip_L1D                          0 # global memory access skip L1D cache (implements -Xptxas -dlcm=cg, default=no skip)
-gpgpu_perfect_mem                      0 # enable perfect memory mode (no cache miss)
-n_regfile_gating_group                    4 # group of lanes that should be read/written together)
-gpgpu_clock_gated_reg_file                    0 # enable clock gated reg file for power calculations
-gpgpu_clock_gated_lanes                    0 # enable clock gated lanes for power calculations
-gpgpu_shader_registers                32768 # Number of registers per shader core. Limits number of concurrent CTAs. (default 8192)
-gpgpu_shader_cta                       8 # Maximum number of concurrent CTAs in shader (default 8)
-gpgpu_num_cta_barriers                   16 # Maximum number of named barriers per CTA (default 16)
-gpgpu_n_clusters                      15 # number of processing clusters
-gpgpu_n_cores_per_cluster                    1 # number of simd cores per cluster
-gpgpu_n_cluster_ejection_buffer_size                    8 # number of packets in ejection buffer
-gpgpu_n_ldst_response_buffer_size                    2 # number of response packets in ld/st unit ejection buffer
-gpgpu_shmem_size                   16384 # Size of shared memory per shader core (default 16kB)
-gpgpu_shmem_size                   49152 # Size of shared memory per shader core (default 16kB)
-gpgpu_shmem_size_PrefL1                16384 # Size of shared memory per shader core (default 16kB)
-gpgpu_shmem_size_PrefShared                16384 # Size of shared memory per shader core (default 16kB)
-gpgpu_shmem_num_banks                   32 # Number of banks in the shared memory in each shader core (default 16)
-gpgpu_shmem_limited_broadcast                    0 # Limit shared memory to do one broadcast per cycle (default on)
-gpgpu_shmem_warp_parts                    1 # Number of portions a warp is divided into for shared memory bank conflict check 
-gpgpu_warpdistro_shader                   -1 # Specify which shader core to collect the warp size distribution from
-gpgpu_warp_issue_shader                    0 # Specify which shader core to collect the warp issue distribution from
-gpgpu_local_mem_map                    1 # Mapping from local memory space address to simulated GPU physical address space (default = enabled)
-gpgpu_num_reg_banks                   16 # Number of register banks (default = 8)
-gpgpu_reg_bank_use_warp_id                    0 # Use warp ID in mapping registers to banks (default = off)
-gpgpu_operand_collector_num_units_sp                    6 # number of collector units (default = 4)
-gpgpu_operand_collector_num_units_sfu                    8 # number of collector units (default = 4)
-gpgpu_operand_collector_num_units_mem                    2 # number of collector units (default = 2)
-gpgpu_operand_collector_num_units_gen                    0 # number of collector units (default = 0)
-gpgpu_operand_collector_num_in_ports_sp                    2 # number of collector unit in ports (default = 1)
-gpgpu_operand_collector_num_in_ports_sfu                    1 # number of collector unit in ports (default = 1)
-gpgpu_operand_collector_num_in_ports_mem                    1 # number of collector unit in ports (default = 1)
-gpgpu_operand_collector_num_in_ports_gen                    0 # number of collector unit in ports (default = 0)
-gpgpu_operand_collector_num_out_ports_sp                    2 # number of collector unit in ports (default = 1)
-gpgpu_operand_collector_num_out_ports_sfu                    1 # number of collector unit in ports (default = 1)
-gpgpu_operand_collector_num_out_ports_mem                    1 # number of collector unit in ports (default = 1)
-gpgpu_operand_collector_num_out_ports_gen                    0 # number of collector unit in ports (default = 0)
-gpgpu_coalesce_arch                   13 # Coalescing arch (default = 13, anything else is off for now)
-gpgpu_num_sched_per_core                    2 # Number of warp schedulers per core
-gpgpu_max_insn_issue_per_warp                    1 # Max number of instructions that can be issued per warp in one cycle by scheduler
-gpgpu_simt_core_sim_order                    1 # Select the simulation order of cores in a cluster (0=Fix, 1=Round-Robin)
-gpgpu_pipeline_widths        2,1,1,2,1,1,2 # Pipeline widths ID_OC_SP,ID_OC_SFU,ID_OC_MEM,OC_EX_SP,OC_EX_SFU,OC_EX_MEM,EX_WB
-gpgpu_num_sp_units                     2 # Number of SP units (default=1)
-gpgpu_num_sfu_units                    1 # Number of SF units (default=1)
-gpgpu_num_mem_units                    1 # Number if ldst units (default=1) WARNING: not hooked up to anything
-gpgpu_scheduler                      gto # Scheduler configuration: < lrr | gto | two_level_active > If two_level_active:<num_active_warps>:<inner_prioritization>:<outer_prioritization>For complete list of prioritization values see shader.h enum scheduler_prioritization_typeDefault: gto
-gpgpu_dram_scheduler                    1 # 0 = fifo, 1 = FR-FCFS (defaul)
-gpgpu_dram_partition_queues              8:8:8:8 # i2$:$2d:d2$:$2i
-l2_ideal                               0 # Use a ideal L2 cache that always hit
-gpgpu_cache:dl2     64:128:8,L:B:m:W:L,A:32:4,4:0,32 # unified banked L2 data cache config  {<nsets>:<bsize>:<assoc>,<rep>:<wr>:<alloc>:<wr_alloc>,<mshr>:<N>:<merge>,<mq>}
-gpgpu_cache:dl2_texture_only                    0 # L2 cache used for texture only
-gpgpu_n_mem                            6 # number of memory modules (e.g. memory controllers) in gpu
-gpgpu_n_sub_partition_per_mchannel                    2 # number of memory subpartition in each memory module
-gpgpu_n_mem_per_ctrlr                    2 # number of memory chips per memory controller
-gpgpu_memlatency_stat                   14 # track and display latency statistics 0x2 enables MC, 0x4 enables queue logs
-gpgpu_frfcfs_dram_sched_queue_size                   16 # 0 = unlimited (default); # entries per chip
-gpgpu_dram_return_queue_size                  116 # 0 = unlimited (default); # entries per chip
-gpgpu_dram_buswidth                    4 # default = 4 bytes (8 bytes per cycle at DDR)
-gpgpu_dram_burst_length                    8 # Burst length of each DRAM request (default = 4 data bus cycle)
-dram_data_command_freq_ratio                    4 # Frequency ratio between DRAM data bus and command bus (default = 2 times, i.e. DDR)
-gpgpu_dram_timing_opt nbk=16:CCD=2:RRD=6:RCD=12:RAS=28:RP=12:RC=40: CL=12:WL=4:CDLR=5:WR=12:nbkgrp=4:CCDL=3:RTPL=2 # DRAM timing parameters = {nbk:tCCD:tRRD:tRCD:tRAS:tRP:tRC:CL:WL:tCDLR:tWR:nbkgrp:tCCDL:tRTPL}
-rop_latency                          120 # ROP queue latency (default 85)
-dram_latency                         100 # DRAM latency (default 30)
-gpgpu_mem_addr_mapping dramid@8;00000000.00000000.00000000.00000000.0000RRRR.RRRRRRRR.BBBCCCCB.CCSSSSSS # mapping memory address to dram model {dramid@<start bit>;<memory address map>}
-gpgpu_mem_addr_test                    0 # run sweep test to check address mapping for aliased address
-gpgpu_mem_address_mask                    1 # 0 = old addressing mask, 1 = new addressing mask, 2 = new add. mask + flipped bank sel and chip sel bits
-gpuwattch_xml_file  gpuwattch_gtx480.xml # GPUWattch XML file
-power_simulation_enabled                    1 # Turn on power simulator (1=On, 0=Off)
-power_per_cycle_dump                    0 # Dump detailed power output each cycle
-power_trace_enabled                    0 # produce a file for the power trace (1=On, 0=Off)
-power_trace_zlevel                     6 # Compression level of the power trace output log (0=no comp, 9=highest)
-steady_power_levels_enabled                    0 # produce a file for the steady power levels (1=On, 0=Off)
-steady_state_definition                  8:4 # allowed deviation:number of samples
-gpgpu_max_cycle                        0 # terminates gpu simulation early (0 = no limit)
-gpgpu_max_insn                         0 # terminates gpu simulation early (0 = no limit)
-gpgpu_max_cta                          0 # terminates gpu simulation early (0 = no limit)
-gpgpu_runtime_stat                   500 # display runtime statistics such as dram utilization {<freq>:<flag>}
-liveness_message_freq                    1 # Minimum number of seconds between simulation liveness messages (0 = always print)
-gpgpu_flush_l1_cache                    0 # Flush L1 cache at the end of each kernel call
-gpgpu_flush_l2_cache                    0 # Flush L2 cache at the end of each kernel call
-gpgpu_deadlock_detect                    1 # Stop the simulation at deadlock (1=on (default), 0=off)
-gpgpu_ptx_instruction_classification                    0 # if enabled will classify ptx instruction types per kernel (Max 255 kernels now)
-gpgpu_ptx_sim_mode                     0 # Select between Performance (default) or Functional simulation (1)
-gpgpu_clock_domains 700.0:700.0:700.0:924.0 # Clock Domain Frequencies in MhZ {<Core Clock>:<ICNT Clock>:<L2 Clock>:<DRAM Clock>}
-gpgpu_max_concurrent_kernel                    8 # maximum kernels that can run concurrently on GPU
-gpgpu_cflog_interval                    0 # Interval between each snapshot in control flow logger
-visualizer_enabled                     0 # Turn on visualizer output (1=On, 0=Off)
-visualizer_outputfile                 NULL # Specifies the output log file for visualizer
-visualizer_zlevel                      6 # Compression level of the visualizer output log (0=no comp, 9=highest)
-trace_enabled                          0 # Turn on traces
-trace_components                    none # comma seperated list of traces to enable. Complete list found in trace_streams.tup. Default none
-trace_sampling_core                    0 # The core which is printed using CORE_DPRINTF. Default 0
-trace_sampling_memory_partition                   -1 # The memory partition which is printed using MEMPART_DPRINTF. Default -1 (i.e. all)
-enable_ptx_file_line_stats                    1 # Turn on PTX source line statistic profiling. (1 = On)
-ptx_line_stats_filename gpgpu_inst_stats.txt # Output file for PTX source line statistics.
-save_embedded_ptx                      0 # saves ptx files embedded in binary as <n>.ptx
-keep                                   0 # keep intermediate files created by GPGPU-Sim when interfacing with external programs
-gpgpu_ptx_save_converted_ptxplus                    0 # Saved converted ptxplus to a file
-ptx_opcode_latency_int         4,13,4,5,145 # Opcode latencies for integers <ADD,MAX,MUL,MAD,DIV>Default 1,1,19,25,145
-ptx_opcode_latency_fp          4,13,4,5,39 # Opcode latencies for single precision floating points <ADD,MAX,MUL,MAD,DIV>Default 1,1,1,1,30
-ptx_opcode_latency_dp         8,19,8,8,330 # Opcode latencies for double precision floating points <ADD,MAX,MUL,MAD,DIV>Default 8,8,8,8,335
-ptx_opcode_initiation_int            1,2,2,1,8 # Opcode initiation intervals for integers <ADD,MAX,MUL,MAD,DIV>Default 1,1,4,4,32
-ptx_opcode_initiation_fp            1,2,1,1,4 # Opcode initiation intervals for single precision floating points <ADD,MAX,MUL,MAD,DIV>Default 1,1,1,1,5
-ptx_opcode_initiation_dp         8,16,8,8,130 # Opcode initiation intervals for double precision floating points <ADD,MAX,MUL,MAD,DIV>Default 8,8,8,8,130
DRAM Timing Options:
nbk                                    16 # number of banks
CCD                                     2 # column to column delay
RRD                                     6 # minimal delay between activation of rows in different banks
RCD                                    12 # row to column delay
RAS                                    28 # time needed to activate row
RP                                     12 # time needed to precharge (deactivate) row
RC                                     40 # row cycle time
CDLR                                    5 # switching from write to read (changes tWTR)
WR                                     12 # last data-in to row precharge
CL                                     12 # CAS latency
WL                                      4 # Write latency
nbkgrp                                  4 # number of bank groups
CCDL                                    3 # column to column delay between accesses to different bank groups
RTPL                                    2 # read to precharge delay between accesses to different bank groups
Total number of memory sub partition = 12
addr_dec_mask[CHIP]  = 0000000000000000 	high:64 low:0
addr_dec_mask[BK]    = 000000000000e100 	high:16 low:8
addr_dec_mask[ROW]   = 000000000fff0000 	high:28 low:16
addr_dec_mask[COL]   = 0000000000001eff 	high:13 low:0
addr_dec_mask[BURST] = 000000000000003f 	high:6 low:0
sub_partition_id_mask = 0000000000000100
GPGPU-Sim uArch: clock freqs: 700000000.000000:700000000.000000:700000000.000000:924000000.000000
GPGPU-Sim uArch: clock periods: 0.00000000142857142857:0.00000000142857142857:0.00000000142857142857:0.00000000108225108225
*** Initializing Memory Statistics ***
GPGPU-Sim uArch: interconnect node map (shaderID+MemID to icntID)
GPGPU-Sim uArch: Memory nodes ID start from index: 15
GPGPU-Sim uArch:    0   1   2   3   4
GPGPU-Sim uArch:    5   6   7   8   9
GPGPU-Sim uArch:   10  11  12  13  14
GPGPU-Sim uArch:   15  16  17  18  19
GPGPU-Sim uArch:   20  21  22  23  24
GPGPU-Sim uArch:   25  26
GPGPU-Sim uArch: interconnect node reverse map (icntID to shaderID+MemID)
GPGPU-Sim uArch: Memory nodes start from ID: 15
GPGPU-Sim uArch:    0   1   2   3   4
GPGPU-Sim uArch:    5   6   7   8   9
GPGPU-Sim uArch:   10  11  12  13  14
GPGPU-Sim uArch:   15  16  17  18  19
GPGPU-Sim uArch:   20  21  22  23  24
GPGPU-Sim uArch:   25  26
d5a6ec27b07eb0e399a2602c9dc20eed  /data/bigdata/2_Gpgpu_Architecture/parboil/benchmarks/lbm/build/cuda_default/lbm
GPGPU-Sim uArch: performance model initialization complete.
GPGPU-Sim PTX: __cudaRegisterFatBinary, fat_cubin_handle = 1, filename=src/cuda/lbm.cu
self exe links to: /data/bigdata/2_Gpgpu_Architecture/parboil/benchmarks/lbm/build/cuda_default/lbm
Running md5sum using "md5sum /data/bigdata/2_Gpgpu_Architecture/parboil/benchmarks/lbm/build/cuda_default/lbm "
Running cuobjdump using "$CUDA_INSTALL_PATH/bin/cuobjdump -ptx -elf -sass /data/bigdata/2_Gpgpu_Architecture/parboil/benchmarks/lbm/build/cuda_default/lbm > _cuobjdump_complete_output_JGzkab"
Parsing file _cuobjdump_complete_output_JGzkab
######### cuobjdump parser ########
## Adding new section PTX
Adding ptx filename: _cuobjdump_1.ptx
Adding arch: sm_20
Adding identifier: src/cuda/lbm.cu
Done parsing!!!
GPGPU-Sim PTX: __cudaRegisterFunction _Z27performStreamCollide_kernelPfS_ : hostFun 0x0x403a1b, fat_cubin_handle = 1
GPGPU-Sim PTX: instruction assembly for function '_Z27performStreamCollide_kernelPfS_'...   done.
GPGPU-Sim PTX: finding reconvergence points for '_Z27performStreamCollide_kernelPfS_'...
GPGPU-Sim PTX: Finding dominators for '_Z27performStreamCollide_kernelPfS_'...
GPGPU-Sim PTX: Finding immediate dominators for '_Z27performStreamCollide_kernelPfS_'...
GPGPU-Sim PTX: Finding postdominators for '_Z27performStreamCollide_kernelPfS_'...
GPGPU-Sim PTX: Finding immediate postdominators for '_Z27performStreamCollide_kernelPfS_'...
GPGPU-Sim PTX: pre-decoding instructions for '_Z27performStreamCollide_kernelPfS_'...
GPGPU-Sim PTX: reconvergence points for _Z27performStreamCollide_kernelPfS_...
GPGPU-Sim PTX:  1 (potential) branch divergence @  PC=0x720 (_1.ptx:282) @%p2 bra BB0_2;
GPGPU-Sim PTX:    immediate post dominator      @  PC=0xfb8 (_1.ptx:608) add.s32 %r176, %r1, 0;
GPGPU-Sim PTX:  2 (potential) branch divergence @  PC=0x770 (_1.ptx:297) bra.uni BB0_5;
GPGPU-Sim PTX:    immediate post dominator      @  PC=0xfb8 (_1.ptx:608) add.s32 %r176, %r1, 0;
GPGPU-Sim PTX:  3 (potential) branch divergence @  PC=0x9c8 (_1.ptx:388) @%p4 bra BB0_4;
GPGPU-Sim PTX:    immediate post dominator      @  PC=0x9e8 (_1.ptx:396) mul.f32 %f118, %f276, %f276;
GPGPU-Sim PTX: ... end of reconvergence points for _Z27performStreamCollide_kernelPfS_
GPGPU-Sim PTX: ... done pre-decoding instructions for '_Z27performStreamCollide_kernelPfS_'.
GPGPU-Sim PTX: finished parsing EMBEDDED .ptx file _1.ptx
Adding _cuobjdump_1.ptx with cubin handle 1
GPGPU-Sim PTX: extracting embedded .ptx to temporary file "_ptx_T3QzwU"
Running: cat _ptx_T3QzwU | sed 's/.version 1.5/.version 1.4/' | sed 's/, texmode_independent//' | sed 's/\(\.extern \.const\[1\] .b8 \w\+\)\[\]/\1\[1\]/' | sed 's/const\[.\]/const\[0\]/g' > _ptx2_l6WPSD
CF_UTILS: Static Branch stats
extrinsic: 0, intrinsic: 3
GPGPU-Sim PTX: generating ptxinfo using "$CUDA_INSTALL_PATH/bin/ptxas --gpu-name=sm_20 -v _ptx2_l6WPSD_lab --output-file  /dev/null 2> _ptx_T3QzwUinfo"
GPGPU-Sim PTX: Kernel '_Z27performStreamCollide_kernelPfS_' : regs=36, lmem=0, smem=0, cmem=56
GPGPU-Sim PTX: removing ptxinfo using "rm -f _ptx_T3QzwU _ptx2_l6WPSD _ptx_T3QzwUinfo"
GPGPU-Sim PTX: loading globals with explicit initializers... 
GPGPU-Sim PTX: finished loading globals (0 bytes total).
GPGPU-Sim PTX: loading constants with explicit initializers...  done.
LBM_allocateGrid: allocated 185.2 MByte
MAIN_printInfo:
	grid size      : 120 x 120 x 150 = 2.16 * 10^6 Cells
	nTimeSteps     : 100
	result file    : /data/bigdata/2_Gpgpu_Architecture/parboil/benchmarks/lbm/run/short/reference.dat
	action         : store
	simulation type: lid-driven cavity
	obstacle file  : /data/bigdata/2_Gpgpu_Architecture/parboil/datasets/lbm/short/input/120_120_150_ldc.of

LBM_allocateGrid: allocated 185.2 MByte
LBM_allocateGrid: allocated 185.2 MByte
LBM_showGridStatistics:
	nObstacleCells:  343321 nAccelCells:   26912 nFluidCells: 1789767
	minRho:   1.0000 maxRho:   1.0000 mass: 2.160000e+06
	minU: 0.000000e+00 maxU: 0.000000e+00

event update

GPGPU-Sim PTX: cudaLaunch for 0x0x403a1b (mode=performance simulation) on stream 0
GPGPU-Sim PTX: pushing kernel '_Z27performStreamCollide_kernelPfS_' to stream 0, gridDim= (120,150,1) blockDim = (120,1,1) 
kernel '_Z27performStreamCollide_kernelPfS_' transfer to GPU hardware scheduler
GPGPU-Sim uArch: Shader 1 bind to kernel 1 '_Z27performStreamCollide_kernelPfS_'
GPGPU-Sim uArch: CTA/core = 7, limited by: regs
GPGPU-Sim uArch: core:  1, cta: 0 initialized @(1,0)
GPGPU-Sim uArch: Shader 2 bind to kernel 1 '_Z27performStreamCollide_kernelPfS_'
GPGPU-Sim uArch: core:  2, cta: 0 initialized @(1,0)
GPGPU-Sim uArch: Shader 3 bind to kernel 1 '_Z27performStreamCollide_kernelPfS_'
GPGPU-Sim uArch: core:  3, cta: 0 initialized @(1,0)
GPGPU-Sim uArch: Shader 4 bind to kernel 1 '_Z27performStreamCollide_kernelPfS_'
GPGPU-Sim uArch: core:  4, cta: 0 initialized @(1,0)
GPGPU-Sim uArch: Shader 5 bind to kernel 1 '_Z27performStreamCollide_kernelPfS_'
GPGPU-Sim uArch: core:  5, cta: 0 initialized @(1,0)
GPGPU-Sim uArch: Shader 6 bind to kernel 1 '_Z27performStreamCollide_kernelPfS_'
GPGPU-Sim uArch: core:  6, cta: 0 initialized @(1,0)
GPGPU-Sim uArch: Shader 7 bind to kernel 1 '_Z27performStreamCollide_kernelPfS_'
GPGPU-Sim uArch: core:  7, cta: 0 initialized @(1,0)
GPGPU-Sim uArch: Shader 8 bind to kernel 1 '_Z27performStreamCollide_kernelPfS_'
GPGPU-Sim uArch: core:  8, cta: 0 initialized @(1,0)
GPGPU-Sim uArch: Shader 9 bind to kernel 1 '_Z27performStreamCollide_kernelPfS_'
GPGPU-Sim uArch: core:  9, cta: 0 initialized @(1,0)
GPGPU-Sim uArch: Shader 10 bind to kernel 1 '_Z27performStreamCollide_kernelPfS_'
GPGPU-Sim uArch: core: 10, cta: 0 initialized @(1,0)
GPGPU-Sim uArch: Shader 11 bind to kernel 1 '_Z27performStreamCollide_kernelPfS_'
GPGPU-Sim uArch: core: 11, cta: 0 initialized @(1,0)
GPGPU-Sim uArch: Shader 12 bind to kernel 1 '_Z27performStreamCollide_kernelPfS_'
GPGPU-Sim uArch: core: 12, cta: 0 initialized @(1,0)
GPGPU-Sim uArch: Shader 13 bind to kernel 1 '_Z27performStreamCollide_kernelPfS_'
GPGPU-Sim uArch: core: 13, cta: 0 initialized @(1,0)
GPGPU-Sim uArch: Shader 14 bind to kernel 1 '_Z27performStreamCollide_kernelPfS_'
GPGPU-Sim uArch: core: 14, cta: 0 initialized @(1,0)
GPGPU-Sim uArch: Shader 0 bind to kernel 1 '_Z27performStreamCollide_kernelPfS_'
GPGPU-Sim uArch: core:  0, cta: 0 initialized @(1,0)
GPGPU-Sim uArch: core:  1, cta: 1 initialized @(2,0)
GPGPU-Sim uArch: core:  2, cta: 1 initialized @(2,0)
GPGPU-Sim uArch: core:  3, cta: 1 initialized @(2,0)
GPGPU-Sim uArch: core:  4, cta: 1 initialized @(2,0)
GPGPU-Sim uArch: core:  5, cta: 1 initialized @(2,0)
GPGPU-Sim uArch: core:  6, cta: 1 initialized @(2,0)
GPGPU-Sim uArch: core:  7, cta: 1 initialized @(2,0)
GPGPU-Sim uArch: core:  8, cta: 1 initialized @(2,0)
GPGPU-Sim uArch: core:  9, cta: 1 initialized @(2,0)
GPGPU-Sim uArch: core: 10, cta: 1 initialized @(2,0)
GPGPU-Sim uArch: core: 11, cta: 1 initialized @(2,0)
GPGPU-Sim uArch: core: 12, cta: 1 initialized @(2,0)
GPGPU-Sim uArch: core: 13, cta: 1 initialized @(2,0)
GPGPU-Sim uArch: core: 14, cta: 1 initialized @(2,0)
GPGPU-Sim uArch: core:  0, cta: 1 initialized @(2,0)
GPGPU-Sim uArch: core:  1, cta: 2 initialized @(3,0)
GPGPU-Sim uArch: core:  2, cta: 2 initialized @(3,0)
GPGPU-Sim uArch: core:  3, cta: 2 initialized @(3,0)
GPGPU-Sim uArch: core:  4, cta: 2 initialized @(3,0)
GPGPU-Sim uArch: core:  5, cta: 2 initialized @(3,0)
GPGPU-Sim uArch: core:  6, cta: 2 initialized @(3,0)
GPGPU-Sim uArch: core:  7, cta: 2 initialized @(3,0)
GPGPU-Sim uArch: core:  8, cta: 2 initialized @(3,0)
GPGPU-Sim uArch: core:  9, cta: 2 initialized @(3,0)
GPGPU-Sim uArch: core: 10, cta: 2 initialized @(3,0)
GPGPU-Sim uArch: core: 11, cta: 2 initialized @(3,0)
GPGPU-Sim uArch: core: 12, cta: 2 initialized @(3,0)
GPGPU-Sim uArch: core: 13, cta: 2 initialized @(3,0)
GPGPU-Sim uArch: core: 14, cta: 2 initialized @(3,0)
GPGPU-Sim uArch: core:  0, cta: 2 initialized @(3,0)
GPGPU-Sim uArch: core:  1, cta: 3 initialized @(4,0)
GPGPU-Sim uArch: core:  2, cta: 3 initialized @(4,0)
GPGPU-Sim uArch: core:  3, cta: 3 initialized @(4,0)
GPGPU-Sim uArch: core:  4, cta: 3 initialized @(4,0)
GPGPU-Sim uArch: core:  5, cta: 3 initialized @(4,0)
GPGPU-Sim uArch: core:  6, cta: 3 initialized @(4,0)
GPGPU-Sim uArch: core:  7, cta: 3 initialized @(4,0)
GPGPU-Sim uArch: core:  8, cta: 3 initialized @(4,0)
GPGPU-Sim uArch: core:  9, cta: 3 initialized @(4,0)
GPGPU-Sim uArch: core: 10, cta: 3 initialized @(4,0)
GPGPU-Sim uArch: core: 11, cta: 3 initialized @(4,0)
GPGPU-Sim uArch: core: 12, cta: 3 initialized @(4,0)
GPGPU-Sim uArch: core: 13, cta: 3 initialized @(4,0)
GPGPU-Sim uArch: core: 14, cta: 3 initialized @(4,0)
GPGPU-Sim uArch: core:  0, cta: 3 initialized @(4,0)
GPGPU-Sim uArch: core:  1, cta: 4 initialized @(5,0)
GPGPU-Sim uArch: core:  2, cta: 4 initialized @(5,0)
GPGPU-Sim uArch: core:  3, cta: 4 initialized @(5,0)
GPGPU-Sim uArch: core:  4, cta: 4 initialized @(5,0)
GPGPU-Sim uArch: core:  5, cta: 4 initialized @(5,0)
GPGPU-Sim uArch: core:  6, cta: 4 initialized @(5,0)
GPGPU-Sim uArch: core:  7, cta: 4 initialized @(5,0)
GPGPU-Sim uArch: core:  8, cta: 4 initialized @(5,0)
GPGPU-Sim uArch: core:  9, cta: 4 initialized @(5,0)
GPGPU-Sim uArch: core: 10, cta: 4 initialized @(5,0)
GPGPU-Sim uArch: core: 11, cta: 4 initialized @(5,0)
GPGPU-Sim uArch: core: 12, cta: 4 initialized @(5,0)
GPGPU-Sim uArch: core: 13, cta: 4 initialized @(5,0)
GPGPU-Sim uArch: core: 14, cta: 4 initialized @(5,0)
GPGPU-Sim uArch: core:  0, cta: 4 initialized @(5,0)
GPGPU-Sim uArch: core:  1, cta: 5 initialized @(6,0)
GPGPU-Sim uArch: core:  2, cta: 5 initialized @(6,0)
GPGPU-Sim uArch: core:  3, cta: 5 initialized @(6,0)
GPGPU-Sim uArch: core:  4, cta: 5 initialized @(6,0)
GPGPU-Sim uArch: core:  5, cta: 5 initialized @(6,0)
GPGPU-Sim uArch: core:  6, cta: 5 initialized @(6,0)
GPGPU-Sim uArch: core:  7, cta: 5 initialized @(6,0)
GPGPU-Sim uArch: core:  8, cta: 5 initialized @(6,0)
GPGPU-Sim uArch: core:  9, cta: 5 initialized @(6,0)
GPGPU-Sim uArch: core: 10, cta: 5 initialized @(6,0)
GPGPU-Sim uArch: core: 11, cta: 5 initialized @(6,0)
GPGPU-Sim uArch: core: 12, cta: 5 initialized @(6,0)
GPGPU-Sim uArch: core: 13, cta: 5 initialized @(6,0)
GPGPU-Sim uArch: core: 14, cta: 5 initialized @(6,0)
GPGPU-Sim uArch: core:  0, cta: 5 initialized @(6,0)
GPGPU-Sim uArch: core:  1, cta: 6 initialized @(7,0)
GPGPU-Sim uArch: core:  2, cta: 6 initialized @(7,0)
GPGPU-Sim uArch: core:  3, cta: 6 initialized @(7,0)
GPGPU-Sim uArch: core:  4, cta: 6 initialized @(7,0)
GPGPU-Sim uArch: core:  5, cta: 6 initialized @(7,0)
GPGPU-Sim uArch: core:  6, cta: 6 initialized @(7,0)
GPGPU-Sim uArch: core:  7, cta: 6 initialized @(7,0)
GPGPU-Sim uArch: core:  8, cta: 6 initialized @(7,0)
GPGPU-Sim uArch: core:  9, cta: 6 initialized @(7,0)
GPGPU-Sim uArch: core: 10, cta: 6 initialized @(7,0)
GPGPU-Sim uArch: core: 11, cta: 6 initialized @(7,0)
GPGPU-Sim uArch: core: 12, cta: 6 initialized @(7,0)
GPGPU-Sim uArch: core: 13, cta: 6 initialized @(7,0)
GPGPU-Sim uArch: core: 14, cta: 6 initialized @(7,0)
GPGPU-Sim uArch: core:  0, cta: 6 initialized @(7,0)
GPGPU-Sim PTX: 100000 instructions simulated : ctaid=(26,0,0) tid=(79,0,0)
GPGPU-Sim uArch: cycles simulated: 500  inst.: 87752 (ipc=175.5) sim_rate=2659 (inst/sec) elapsed = 0:0:00:33 / Wed Dec  9 00:46:04 2015
GPGPU-Sim PTX: 200000 instructions simulated : ctaid=(102,0,0) tid=(47,0,0)
GPGPU-Sim PTX: 300000 instructions simulated : ctaid=(50,0,0) tid=(119,0,0)
GPGPU-Sim PTX: 400000 instructions simulated : ctaid=(85,0,0) tid=(119,0,0)
GPGPU-Sim PTX: 500000 instructions simulated : ctaid=(38,0,0) tid=(55,0,0)
GPGPU-Sim PTX: 600000 instructions simulated : ctaid=(82,0,0) tid=(119,0,0)
GPGPU-Sim PTX: 700000 instructions simulated : ctaid=(9,0,0) tid=(31,0,0)
GPGPU-Sim uArch: cycles simulated: 2000  inst.: 708288 (ipc=354.1) sim_rate=20832 (inst/sec) elapsed = 0:0:00:34 / Wed Dec  9 00:46:05 2015
GPGPU-Sim PTX: 800000 instructions simulated : ctaid=(2,0,0) tid=(79,0,0)
GPGPU-Sim PTX: 900000 instructions simulated : ctaid=(78,0,0) tid=(119,0,0)
GPGPU-Sim PTX: 1000000 instructions simulated : ctaid=(84,0,0) tid=(39,0,0)
GPGPU-Sim PTX: 1100000 instructions simulated : ctaid=(44,0,0) tid=(79,0,0)
GPGPU-Sim uArch: cycles simulated: 3000  inst.: 1128984 (ipc=376.3) sim_rate=32256 (inst/sec) elapsed = 0:0:00:35 / Wed Dec  9 00:46:06 2015
GPGPU-Sim PTX: 1200000 instructions simulated : ctaid=(91,0,0) tid=(47,0,0)
GPGPU-Sim PTX: 1300000 instructions simulated : ctaid=(62,0,0) tid=(79,0,0)
GPGPU-Sim PTX: 1400000 instructions simulated : ctaid=(44,0,0) tid=(79,0,0)
GPGPU-Sim PTX: 1500000 instructions simulated : ctaid=(20,0,0) tid=(63,0,0)
GPGPU-Sim uArch: cycles simulated: 4000  inst.: 1524952 (ipc=381.2) sim_rate=42359 (inst/sec) elapsed = 0:0:00:36 / Wed Dec  9 00:46:07 2015
GPGPU-Sim PTX: 1600000 instructions simulated : ctaid=(37,0,0) tid=(103,0,0)
GPGPU-Sim PTX: 1700000 instructions simulated : ctaid=(54,0,0) tid=(15,0,0)
GPGPU-Sim PTX: 1800000 instructions simulated : ctaid=(63,0,0) tid=(47,0,0)
GPGPU-Sim PTX: 1900000 instructions simulated : ctaid=(67,0,0) tid=(23,0,0)
GPGPU-Sim uArch: cycles simulated: 5000  inst.: 1930552 (ipc=386.1) sim_rate=52177 (inst/sec) elapsed = 0:0:00:37 / Wed Dec  9 00:46:08 2015
GPGPU-Sim PTX: 2000000 instructions simulated : ctaid=(37,0,0) tid=(15,0,0)
GPGPU-Sim PTX: 2100000 instructions simulated : ctaid=(36,0,0) tid=(79,0,0)
GPGPU-Sim PTX: 2200000 instructions simulated : ctaid=(100,0,0) tid=(55,0,0)
GPGPU-Sim PTX: 2300000 instructions simulated : ctaid=(6,0,0) tid=(111,0,0)
GPGPU-Sim uArch: cycles simulated: 6000  inst.: 2352344 (ipc=392.1) sim_rate=61903 (inst/sec) elapsed = 0:0:00:38 / Wed Dec  9 00:46:09 2015
GPGPU-Sim PTX: 2400000 instructions simulated : ctaid=(1,0,0) tid=(95,0,0)
GPGPU-Sim PTX: 2500000 instructions simulated : ctaid=(63,0,0) tid=(7,0,0)
GPGPU-Sim PTX: 2600000 instructions simulated : ctaid=(90,0,0) tid=(39,0,0)
GPGPU-Sim PTX: 2700000 instructions simulated : ctaid=(29,0,0) tid=(63,0,0)
GPGPU-Sim PTX: 2800000 instructions simulated : ctaid=(88,0,0) tid=(103,0,0)
GPGPU-Sim uArch: cycles simulated: 7000  inst.: 2791624 (ipc=398.8) sim_rate=71580 (inst/sec) elapsed = 0:0:00:39 / Wed Dec  9 00:46:10 2015
GPGPU-Sim PTX: 2900000 instructions simulated : ctaid=(104,0,0) tid=(95,0,0)
GPGPU-Sim PTX: 3000000 instructions simulated : ctaid=(19,0,0) tid=(111,0,0)
GPGPU-Sim PTX: 3100000 instructions simulated : ctaid=(67,0,0) tid=(55,0,0)
GPGPU-Sim PTX: 3200000 instructions simulated : ctaid=(92,0,0) tid=(87,0,0)
GPGPU-Sim PTX: 3300000 instructions simulated : ctaid=(94,0,0) tid=(95,0,0)
GPGPU-Sim uArch: cycles simulated: 8500  inst.: 3314624 (ipc=390.0) sim_rate=82865 (inst/sec) elapsed = 0:0:00:40 / Wed Dec  9 00:46:11 2015
GPGPU-Sim PTX: 3400000 instructions simulated : ctaid=(53,0,0) tid=(39,0,0)
GPGPU-Sim PTX: 3500000 instructions simulated : ctaid=(94,0,0) tid=(95,0,0)
GPGPU-Sim uArch: cycles simulated: 10000  inst.: 3571104 (ipc=357.1) sim_rate=87100 (inst/sec) elapsed = 0:0:00:41 / Wed Dec  9 00:46:12 2015
GPGPU-Sim PTX: 3600000 instructions simulated : ctaid=(33,0,0) tid=(63,0,0)
GPGPU-Sim PTX: 3700000 instructions simulated : ctaid=(12,0,0) tid=(15,0,0)
GPGPU-Sim uArch: cycles simulated: 11500  inst.: 3727304 (ipc=324.1) sim_rate=88745 (inst/sec) elapsed = 0:0:00:42 / Wed Dec  9 00:46:13 2015
GPGPU-Sim PTX: 3800000 instructions simulated : ctaid=(93,0,0) tid=(55,0,0)
GPGPU-Sim PTX: 3900000 instructions simulated : ctaid=(31,0,0) tid=(71,0,0)
GPGPU-Sim PTX: 4000000 instructions simulated : ctaid=(34,0,0) tid=(71,0,0)
GPGPU-Sim uArch: cycles simulated: 13500  inst.: 4001520 (ipc=296.4) sim_rate=93058 (inst/sec) elapsed = 0:0:00:43 / Wed Dec  9 00:46:14 2015
GPGPU-Sim PTX: 4100000 instructions simulated : ctaid=(12,0,0) tid=(111,0,0)
GPGPU-Sim uArch: cycles simulated: 15000  inst.: 4154152 (ipc=276.9) sim_rate=94412 (inst/sec) elapsed = 0:0:00:44 / Wed Dec  9 00:46:15 2015
GPGPU-Sim PTX: 4200000 instructions simulated : ctaid=(14,0,0) tid=(95,0,0)
GPGPU-Sim PTX: 4300000 instructions simulated : ctaid=(19,0,0) tid=(87,0,0)
GPGPU-Sim PTX: 4400000 instructions simulated : ctaid=(15,0,0) tid=(39,0,0)
GPGPU-Sim uArch: cycles simulated: 17000  inst.: 4420208 (ipc=260.0) sim_rate=98226 (inst/sec) elapsed = 0:0:00:45 / Wed Dec  9 00:46:16 2015
GPGPU-Sim PTX: 4500000 instructions simulated : ctaid=(100,0,0) tid=(71,0,0)
GPGPU-Sim PTX: 4600000 instructions simulated : ctaid=(3,0,0) tid=(87,0,0)
GPGPU-Sim PTX: 4700000 instructions simulated : ctaid=(12,0,0) tid=(31,0,0)
GPGPU-Sim uArch: cycles simulated: 18500  inst.: 4704624 (ipc=254.3) sim_rate=102274 (inst/sec) elapsed = 0:0:00:46 / Wed Dec  9 00:46:17 2015
GPGPU-Sim PTX: 4800000 instructions simulated : ctaid=(16,0,0) tid=(87,0,0)
GPGPU-Sim uArch: cycles simulated: 19500  inst.: 4834256 (ipc=247.9) sim_rate=102856 (inst/sec) elapsed = 0:0:00:47 / Wed Dec  9 00:46:18 2015
GPGPU-Sim PTX: 4900000 instructions simulated : ctaid=(99,0,0) tid=(7,0,0)
GPGPU-Sim uArch: Shader 2 finished CTA #0 (20493,0), 6 CTAs running
GPGPU-Sim uArch: core:  2, cta: 0 initialized @(20494,0)
GPGPU-Sim uArch: Shader 12 finished CTA #0 (20585,0), 6 CTAs running
GPGPU-Sim uArch: core: 12, cta: 0 initialized @(20586,0)
GPGPU-Sim uArch: Shader 5 finished CTA #0 (20652,0), 6 CTAs running
GPGPU-Sim uArch: core:  5, cta: 0 initialized @(20653,0)
GPGPU-Sim PTX: 5000000 instructions simulated : ctaid=(30,0,0) tid=(119,0,0)
GPGPU-Sim uArch: Shader 11 finished CTA #0 (20666,0), 6 CTAs running
GPGPU-Sim uArch: core: 11, cta: 0 initialized @(20667,0)
GPGPU-Sim uArch: Shader 8 finished CTA #0 (20680,0), 6 CTAs running
GPGPU-Sim uArch: core:  8, cta: 0 initialized @(20681,0)
GPGPU-Sim uArch: Shader 10 finished CTA #0 (20738,0), 6 CTAs running
GPGPU-Sim uArch: core: 10, cta: 0 initialized @(20739,0)
GPGPU-Sim uArch: Shader 1 finished CTA #0 (20749,0), 6 CTAs running
GPGPU-Sim uArch: core:  1, cta: 0 initialized @(20750,0)
GPGPU-Sim uArch: Shader 2 finished CTA #1 (20974,0), 6 CTAs running
GPGPU-Sim uArch: core:  2, cta: 1 initialized @(20975,0)
GPGPU-Sim uArch: cycles simulated: 21000  inst.: 5017072 (ipc=238.9) sim_rate=104522 (inst/sec) elapsed = 0:0:00:48 / Wed Dec  9 00:46:19 2015
GPGPU-Sim uArch: Shader 6 finished CTA #0 (21004,0), 6 CTAs running
GPGPU-Sim uArch: core:  6, cta: 0 initialized @(21005,0)
GPGPU-Sim uArch: Shader 13 finished CTA #0 (21033,0), 6 CTAs running
GPGPU-Sim uArch: core: 13, cta: 0 initialized @(21034,0)
GPGPU-Sim uArch: Shader 3 finished CTA #0 (21052,0), 6 CTAs running
GPGPU-Sim uArch: core:  3, cta: 0 initialized @(21053,0)
GPGPU-Sim uArch: Shader 14 finished CTA #0 (21055,0), 6 CTAs running
GPGPU-Sim uArch: core: 14, cta: 0 initialized @(21056,0)
GPGPU-Sim uArch: Shader 11 finished CTA #1 (21154,0), 6 CTAs running
GPGPU-Sim uArch: core: 11, cta: 1 initialized @(21155,0)
GPGPU-Sim PTX: 5100000 instructions simulated : ctaid=(97,0,0) tid=(71,0,0)
GPGPU-Sim uArch: Shader 0 finished CTA #1 (21269,0), 6 CTAs running
GPGPU-Sim uArch: core:  0, cta: 1 initialized @(21270,0)
GPGPU-Sim uArch: Shader 9 finished CTA #0 (21293,0), 6 CTAs running
GPGPU-Sim uArch: core:  9, cta: 0 initialized @(21294,0)
GPGPU-Sim uArch: Shader 0 finished CTA #0 (21332,0), 6 CTAs running
GPGPU-Sim uArch: core:  0, cta: 0 initialized @(21333,0)
GPGPU-Sim uArch: Shader 1 finished CTA #1 (21387,0), 6 CTAs running
GPGPU-Sim uArch: core:  1, cta: 1 initialized @(21388,0)
GPGPU-Sim uArch: Shader 12 finished CTA #1 (21394,0), 6 CTAs running
GPGPU-Sim uArch: core: 12, cta: 1 initialized @(21395,0)
GPGPU-Sim uArch: Shader 13 finished CTA #1 (21398,0), 6 CTAs running
GPGPU-Sim uArch: core: 13, cta: 1 initialized @(21399,0)
GPGPU-Sim uArch: Shader 3 finished CTA #1 (21400,0), 6 CTAs running
GPGPU-Sim uArch: core:  3, cta: 1 initialized @(21401,0)
GPGPU-Sim uArch: Shader 3 finished CTA #2 (21593,0), 6 CTAs running
GPGPU-Sim uArch: core:  3, cta: 2 initialized @(21594,0)
GPGPU-Sim uArch: Shader 4 finished CTA #0 (21634,0), 6 CTAs running
GPGPU-Sim uArch: core:  4, cta: 0 initialized @(21635,0)
GPGPU-Sim uArch: Shader 4 finished CTA #1 (21660,0), 6 CTAs running
GPGPU-Sim uArch: core:  4, cta: 1 initialized @(21661,0)
GPGPU-Sim PTX: 5200000 instructions simulated : ctaid=(73,0,0) tid=(47,0,0)
GPGPU-Sim uArch: Shader 7 finished CTA #0 (21782,0), 6 CTAs running
GPGPU-Sim uArch: core:  7, cta: 0 initialized @(21783,0)
GPGPU-Sim uArch: Shader 10 finished CTA #1 (21856,0), 6 CTAs running
GPGPU-Sim uArch: core: 10, cta: 1 initialized @(21857,0)
GPGPU-Sim uArch: Shader 11 finished CTA #2 (21877,0), 6 CTAs running
GPGPU-Sim uArch: core: 11, cta: 2 initialized @(21878,0)
GPGPU-Sim uArch: Shader 6 finished CTA #1 (21885,0), 6 CTAs running
GPGPU-Sim uArch: core:  6, cta: 1 initialized @(21886,0)
GPGPU-Sim uArch: Shader 7 finished CTA #1 (21915,0), 6 CTAs running
GPGPU-Sim uArch: core:  7, cta: 1 initialized @(21916,0)
GPGPU-Sim uArch: Shader 5 finished CTA #1 (21964,0), 6 CTAs running
GPGPU-Sim uArch: core:  5, cta: 1 initialized @(21965,0)
GPGPU-Sim uArch: cycles simulated: 22000  inst.: 5240032 (ipc=238.2) sim_rate=106939 (inst/sec) elapsed = 0:0:00:49 / Wed Dec  9 00:46:20 2015
GPGPU-Sim uArch: Shader 13 finished CTA #2 (22023,0), 6 CTAs running
GPGPU-Sim uArch: core: 13, cta: 2 initialized @(22024,0)
GPGPU-Sim uArch: Shader 2 finished CTA #2 (22080,0), 6 CTAs running
GPGPU-Sim uArch: core:  2, cta: 2 initialized @(22081,0)
GPGPU-Sim uArch: Shader 4 finished CTA #2 (22099,0), 6 CTAs running
GPGPU-Sim uArch: core:  4, cta: 2 initialized @(22100,0)
GPGPU-Sim PTX: 5300000 instructions simulated : ctaid=(119,0,0) tid=(95,0,0)
GPGPU-Sim uArch: Shader 1 finished CTA #2 (22279,0), 6 CTAs running
GPGPU-Sim uArch: core:  1, cta: 2 initialized @(22280,0)
GPGPU-Sim uArch: Shader 8 finished CTA #1 (22287,0), 6 CTAs running
GPGPU-Sim uArch: core:  8, cta: 1 initialized @(22288,0)
GPGPU-Sim uArch: Shader 5 finished CTA #2 (22342,0), 6 CTAs running
GPGPU-Sim uArch: core:  5, cta: 2 initialized @(22343,0)
GPGPU-Sim uArch: Shader 4 finished CTA #3 (22434,0), 6 CTAs running
GPGPU-Sim uArch: core:  4, cta: 3 initialized @(22435,0)
GPGPU-Sim PTX: 5400000 instructions simulated : ctaid=(52,0,0) tid=(55,0,0)
GPGPU-Sim uArch: Shader 2 finished CTA #3 (22680,0), 6 CTAs running
GPGPU-Sim uArch: core:  2, cta: 3 initialized @(22681,0)
GPGPU-Sim PTX: 5500000 instructions simulated : ctaid=(47,0,0) tid=(119,0,0)
GPGPU-Sim uArch: Shader 4 finished CTA #4 (22749,0), 6 CTAs running
GPGPU-Sim uArch: core:  4, cta: 4 initialized @(22750,0)
GPGPU-Sim uArch: Shader 1 finished CTA #3 (22761,0), 6 CTAs running
GPGPU-Sim uArch: core:  1, cta: 3 initialized @(22762,0)
GPGPU-Sim uArch: Shader 9 finished CTA #1 (22827,0), 6 CTAs running
GPGPU-Sim uArch: core:  9, cta: 1 initialized @(22828,0)
GPGPU-Sim uArch: Shader 2 finished CTA #4 (22870,0), 6 CTAs running
GPGPU-Sim uArch: core:  2, cta: 4 initialized @(22871,0)
GPGPU-Sim uArch: cycles simulated: 23000  inst.: 5508608 (ipc=239.5) sim_rate=110172 (inst/sec) elapsed = 0:0:00:50 / Wed Dec  9 00:46:21 2015
GPGPU-Sim uArch: Shader 8 finished CTA #2 (23227,0), 6 CTAs running
GPGPU-Sim uArch: core:  8, cta: 2 initialized @(23228,0)
GPGPU-Sim uArch: Shader 13 finished CTA #3 (23242,0), 6 CTAs running
GPGPU-Sim uArch: core: 13, cta: 3 initialized @(23243,0)
GPGPU-Sim PTX: 5600000 instructions simulated : ctaid=(92,0,0) tid=(119,0,0)
GPGPU-Sim uArch: Shader 11 finished CTA #3 (23357,0), 6 CTAs running
GPGPU-Sim uArch: core: 11, cta: 3 initialized @(23358,0)
GPGPU-Sim uArch: Shader 4 finished CTA #5 (23377,0), 6 CTAs running
GPGPU-Sim uArch: core:  4, cta: 5 initialized @(23378,0)
GPGPU-Sim uArch: Shader 9 finished CTA #2 (23419,0), 6 CTAs running
GPGPU-Sim uArch: core:  9, cta: 2 initialized @(23420,0)
GPGPU-Sim uArch: Shader 0 finished CTA #2 (23421,0), 6 CTAs running
GPGPU-Sim uArch: core:  0, cta: 2 initialized @(23422,0)
GPGPU-Sim uArch: Shader 3 finished CTA #3 (23422,0), 6 CTAs running
GPGPU-Sim uArch: core:  3, cta: 3 initialized @(23423,0)
GPGPU-Sim uArch: Shader 12 finished CTA #2 (23427,0), 6 CTAs running
GPGPU-Sim uArch: core: 12, cta: 2 initialized @(23428,0)
GPGPU-Sim uArch: Shader 5 finished CTA #3 (23463,0), 6 CTAs running
GPGPU-Sim uArch: core:  5, cta: 3 initialized @(23464,0)
GPGPU-Sim PTX: 5700000 instructions simulated : ctaid=(73,0,0) tid=(103,0,0)
GPGPU-Sim uArch: Shader 6 finished CTA #2 (23504,0), 6 CTAs running
GPGPU-Sim uArch: core:  6, cta: 2 initialized @(23505,0)
GPGPU-Sim uArch: Shader 14 finished CTA #1 (23622,0), 6 CTAs running
GPGPU-Sim uArch: core: 14, cta: 1 initialized @(23623,0)
GPGPU-Sim uArch: Shader 4 finished CTA #6 (23632,0), 6 CTAs running
GPGPU-Sim uArch: core:  4, cta: 6 initialized @(23633,0)
GPGPU-Sim uArch: Shader 2 finished CTA #5 (23694,0), 6 CTAs running
GPGPU-Sim uArch: core:  2, cta: 5 initialized @(23695,0)
GPGPU-Sim PTX: 5800000 instructions simulated : ctaid=(79,0,0) tid=(55,0,0)
GPGPU-Sim uArch: Shader 7 finished CTA #2 (23801,0), 6 CTAs running
GPGPU-Sim uArch: core:  7, cta: 2 initialized @(23802,0)
GPGPU-Sim uArch: Shader 13 finished CTA #4 (23807,0), 6 CTAs running
GPGPU-Sim uArch: core: 13, cta: 4 initialized @(23808,0)
GPGPU-Sim uArch: Shader 3 finished CTA #4 (23865,0), 6 CTAs running
GPGPU-Sim uArch: core:  3, cta: 4 initialized @(23866,0)
GPGPU-Sim uArch: Shader 11 finished CTA #4 (23934,0), 6 CTAs running
GPGPU-Sim uArch: core: 11, cta: 4 initialized @(23935,0)
GPGPU-Sim uArch: Shader 8 finished CTA #3 (23967,0), 6 CTAs running
GPGPU-Sim uArch: core:  8, cta: 3 initialized @(23968,0)
GPGPU-Sim PTX: 5900000 instructions simulated : ctaid=(13,1,0) tid=(119,0,0)
GPGPU-Sim uArch: Shader 3 finished CTA #6 (23991,0), 6 CTAs running
GPGPU-Sim uArch: core:  3, cta: 6 initialized @(23992,0)
GPGPU-Sim uArch: cycles simulated: 24000  inst.: 5878184 (ipc=244.9) sim_rate=115258 (inst/sec) elapsed = 0:0:00:51 / Wed Dec  9 00:46:22 2015
GPGPU-Sim uArch: Shader 3 finished CTA #5 (24022,0), 6 CTAs running
GPGPU-Sim uArch: core:  3, cta: 5 initialized @(24023,0)
GPGPU-Sim uArch: Shader 8 finished CTA #4 (24030,0), 6 CTAs running
GPGPU-Sim uArch: core:  8, cta: 4 initialized @(24031,0)
GPGPU-Sim uArch: Shader 9 finished CTA #3 (24037,0), 6 CTAs running
GPGPU-Sim uArch: core:  9, cta: 3 initialized @(24038,0)
GPGPU-Sim uArch: Shader 14 finished CTA #2 (24053,0), 6 CTAs running
GPGPU-Sim uArch: core: 14, cta: 2 initialized @(24054,0)
GPGPU-Sim uArch: Shader 11 finished CTA #5 (24094,0), 6 CTAs running
GPGPU-Sim uArch: core: 11, cta: 5 initialized @(24095,0)
GPGPU-Sim uArch: Shader 6 finished CTA #3 (24235,0), 6 CTAs running
GPGPU-Sim uArch: core:  6, cta: 3 initialized @(24236,0)
GPGPU-Sim PTX: 6000000 instructions simulated : ctaid=(29,1,0) tid=(31,0,0)
GPGPU-Sim uArch: Shader 8 finished CTA #5 (24249,0), 6 CTAs running
GPGPU-Sim uArch: core:  8, cta: 5 initialized @(24250,0)
GPGPU-Sim uArch: Shader 1 finished CTA #4 (24328,0), 6 CTAs running
GPGPU-Sim uArch: core:  1, cta: 4 initialized @(24329,0)
GPGPU-Sim uArch: Shader 10 finished CTA #2 (24335,0), 6 CTAs running
GPGPU-Sim uArch: core: 10, cta: 2 initialized @(24336,0)
GPGPU-Sim uArch: Shader 7 finished CTA #3 (24337,0), 6 CTAs running
GPGPU-Sim uArch: core:  7, cta: 3 initialized @(24338,0)
GPGPU-Sim uArch: Shader 5 finished CTA #6 (24355,0), 6 CTAs running
GPGPU-Sim uArch: core:  5, cta: 6 initialized @(24356,0)
GPGPU-Sim uArch: Shader 5 finished CTA #4 (24376,0), 6 CTAs running
GPGPU-Sim uArch: core:  5, cta: 4 initialized @(24377,0)
GPGPU-Sim uArch: Shader 5 finished CTA #5 (24442,0), 6 CTAs running
GPGPU-Sim uArch: core:  5, cta: 5 initialized @(24443,0)
GPGPU-Sim uArch: Shader 6 finished CTA #4 (24457,0), 6 CTAs running
GPGPU-Sim uArch: core:  6, cta: 4 initialized @(24458,0)
GPGPU-Sim uArch: Shader 13 finished CTA #5 (24489,0), 6 CTAs running
GPGPU-Sim uArch: core: 13, cta: 5 initialized @(24490,0)
GPGPU-Sim PTX: 6100000 instructions simulated : ctaid=(36,1,0) tid=(87,0,0)
GPGPU-Sim uArch: cycles simulated: 24500  inst.: 6070120 (ipc=247.8) sim_rate=116733 (inst/sec) elapsed = 0:0:00:52 / Wed Dec  9 00:46:23 2015
GPGPU-Sim uArch: Shader 1 finished CTA #5 (24551,0), 6 CTAs running
GPGPU-Sim uArch: core:  1, cta: 5 initialized @(24552,0)
GPGPU-Sim uArch: Shader 2 finished CTA #6 (24656,0), 6 CTAs running
GPGPU-Sim uArch: core:  2, cta: 6 initialized @(24657,0)
GPGPU-Sim uArch: Shader 0 finished CTA #3 (24715,0), 6 CTAs running
GPGPU-Sim uArch: core:  0, cta: 3 initialized @(24716,0)
GPGPU-Sim uArch: Shader 1 finished CTA #6 (24753,0), 6 CTAs running
GPGPU-Sim uArch: core:  1, cta: 6 initialized @(24754,0)
GPGPU-Sim PTX: 6200000 instructions simulated : ctaid=(52,1,0) tid=(79,0,0)
GPGPU-Sim uArch: Shader 12 finished CTA #3 (24913,0), 6 CTAs running
GPGPU-Sim uArch: core: 12, cta: 3 initialized @(24914,0)
GPGPU-Sim PTX: 6300000 instructions simulated : ctaid=(105,0,0) tid=(103,0,0)
GPGPU-Sim uArch: Shader 8 finished CTA #6 (25047,0), 6 CTAs running
GPGPU-Sim uArch: core:  8, cta: 6 initialized @(25048,0)
GPGPU-Sim uArch: Shader 14 finished CTA #4 (25160,0), 6 CTAs running
GPGPU-Sim uArch: core: 14, cta: 4 initialized @(25161,0)
GPGPU-Sim uArch: Shader 0 finished CTA #4 (25179,0), 6 CTAs running
GPGPU-Sim uArch: core:  0, cta: 4 initialized @(25180,0)
GPGPU-Sim uArch: Shader 14 finished CTA #3 (25288,0), 6 CTAs running
GPGPU-Sim uArch: core: 14, cta: 3 initialized @(25289,0)
GPGPU-Sim PTX: 6400000 instructions simulated : ctaid=(9,1,0) tid=(119,0,0)
GPGPU-Sim uArch: Shader 7 finished CTA #4 (25327,0), 6 CTAs running
GPGPU-Sim uArch: core:  7, cta: 4 initialized @(25328,0)
GPGPU-Sim uArch: Shader 6 finished CTA #5 (25359,0), 6 CTAs running
GPGPU-Sim uArch: core:  6, cta: 5 initialized @(25360,0)
GPGPU-Sim uArch: Shader 9 finished CTA #4 (25488,0), 6 CTAs running
GPGPU-Sim uArch: core:  9, cta: 4 initialized @(25489,0)
GPGPU-Sim uArch: cycles simulated: 25500  inst.: 6444360 (ipc=252.7) sim_rate=121591 (inst/sec) elapsed = 0:0:00:53 / Wed Dec  9 00:46:24 2015
GPGPU-Sim PTX: 6500000 instructions simulated : ctaid=(59,1,0) tid=(31,0,0)
GPGPU-Sim uArch: Shader 6 finished CTA #6 (25622,0), 6 CTAs running
GPGPU-Sim uArch: core:  6, cta: 6 initialized @(25623,0)
GPGPU-Sim uArch: Shader 0 finished CTA #5 (25635,0), 6 CTAs running
GPGPU-Sim uArch: core:  0, cta: 5 initialized @(25636,0)
GPGPU-Sim uArch: Shader 14 finished CTA #5 (25715,0), 6 CTAs running
GPGPU-Sim uArch: core: 14, cta: 5 initialized @(25716,0)
GPGPU-Sim uArch: Shader 14 finished CTA #6 (25724,0), 6 CTAs running
GPGPU-Sim uArch: core: 14, cta: 6 initialized @(25725,0)
GPGPU-Sim uArch: Shader 10 finished CTA #3 (25764,0), 6 CTAs running
GPGPU-Sim uArch: core: 10, cta: 3 initialized @(25765,0)
GPGPU-Sim uArch: Shader 12 finished CTA #5 (25783,0), 6 CTAs running
GPGPU-Sim uArch: core: 12, cta: 5 initialized @(25784,0)
GPGPU-Sim uArch: Shader 12 finished CTA #4 (25788,0), 6 CTAs running
GPGPU-Sim uArch: core: 12, cta: 4 initialized @(25789,0)
GPGPU-Sim PTX: 6600000 instructions simulated : ctaid=(18,1,0) tid=(95,0,0)
GPGPU-Sim uArch: Shader 7 finished CTA #5 (25983,0), 6 CTAs running
GPGPU-Sim uArch: core:  7, cta: 5 initialized @(25984,0)
GPGPU-Sim uArch: Shader 11 finished CTA #6 (26004,0), 6 CTAs running
GPGPU-Sim uArch: core: 11, cta: 6 initialized @(26005,0)
GPGPU-Sim uArch: Shader 9 finished CTA #5 (26007,0), 6 CTAs running
GPGPU-Sim uArch: core:  9, cta: 5 initialized @(26008,0)
GPGPU-Sim PTX: 6700000 instructions simulated : ctaid=(16,1,0) tid=(79,0,0)
GPGPU-Sim uArch: Shader 10 finished CTA #4 (26264,0), 6 CTAs running
GPGPU-Sim uArch: core: 10, cta: 4 initialized @(26265,0)
GPGPU-Sim uArch: cycles simulated: 26500  inst.: 6766456 (ipc=255.3) sim_rate=125304 (inst/sec) elapsed = 0:0:00:54 / Wed Dec  9 00:46:25 2015
GPGPU-Sim PTX: 6800000 instructions simulated : ctaid=(3,1,0) tid=(119,0,0)
GPGPU-Sim uArch: Shader 7 finished CTA #6 (26587,0), 6 CTAs running
GPGPU-Sim uArch: core:  7, cta: 6 initialized @(26588,0)
GPGPU-Sim uArch: Shader 0 finished CTA #6 (26729,0), 6 CTAs running
GPGPU-Sim uArch: core:  0, cta: 6 initialized @(26730,0)
GPGPU-Sim uArch: Shader 10 finished CTA #5 (26814,0), 6 CTAs running
GPGPU-Sim uArch: core: 10, cta: 5 initialized @(26815,0)
GPGPU-Sim PTX: 6900000 instructions simulated : ctaid=(43,1,0) tid=(7,0,0)
GPGPU-Sim uArch: Shader 9 finished CTA #6 (26852,0), 6 CTAs running
GPGPU-Sim uArch: core:  9, cta: 6 initialized @(26853,0)
GPGPU-Sim uArch: Shader 12 finished CTA #6 (27029,0), 6 CTAs running
GPGPU-Sim uArch: core: 12, cta: 6 initialized @(27030,0)
GPGPU-Sim PTX: 7000000 instructions simulated : ctaid=(109,0,0) tid=(79,0,0)
GPGPU-Sim uArch: Shader 13 finished CTA #6 (27226,0), 6 CTAs running
GPGPU-Sim uArch: core: 13, cta: 6 initialized @(27227,0)
GPGPU-Sim PTX: 7100000 instructions simulated : ctaid=(119,0,0) tid=(71,0,0)
GPGPU-Sim uArch: Shader 10 finished CTA #6 (27469,0), 6 CTAs running
GPGPU-Sim uArch: core: 10, cta: 6 initialized @(27470,0)
GPGPU-Sim uArch: cycles simulated: 27500  inst.: 7100128 (ipc=258.2) sim_rate=129093 (inst/sec) elapsed = 0:0:00:55 / Wed Dec  9 00:46:26 2015
GPGPU-Sim PTX: 7200000 instructions simulated : ctaid=(83,1,0) tid=(31,0,0)
GPGPU-Sim PTX: 7300000 instructions simulated : ctaid=(113,0,0) tid=(63,0,0)
GPGPU-Sim PTX: 7400000 instructions simulated : ctaid=(114,0,0) tid=(63,0,0)
GPGPU-Sim uArch: cycles simulated: 28500  inst.: 7442768 (ipc=261.1) sim_rate=132906 (inst/sec) elapsed = 0:0:00:56 / Wed Dec  9 00:46:27 2015
GPGPU-Sim PTX: 7500000 instructions simulated : ctaid=(0,1,0) tid=(47,0,0)
GPGPU-Sim PTX: 7600000 instructions simulated : ctaid=(10,1,0) tid=(87,0,0)
GPGPU-Sim PTX: 7700000 instructions simulated : ctaid=(57,1,0) tid=(23,0,0)
GPGPU-Sim uArch: cycles simulated: 29500  inst.: 7752280 (ipc=262.8) sim_rate=136004 (inst/sec) elapsed = 0:0:00:57 / Wed Dec  9 00:46:28 2015
GPGPU-Sim PTX: 7800000 instructions simulated : ctaid=(86,1,0) tid=(7,0,0)
Branch Status: 2
Branch- 0: 0, 2, 2, 2, 2, 2, 2, 2, 2, 2, 2, 2, 2, 2, 2, 2, 2, 2, 2, 2, 2, 2, 2, 2, 2, 2, 2, 2, 2, 2, 2, 2
Branch- 1: 2, 0, 0, 0, 0, 0, 0, 0, 0, 0, 0, 0, 0, 0, 0, 0, 0, 0, 0, 0, 0, 0, 0, 0, 0, 0, 0, 0, 0, 0, 0, 0
Branch Status: 2
Branch- 0: 0, 2, 2, 2, 2, 2, 2, 2, 2, 2, 2, 2, 2, 2, 2, 2, 2, 2, 2, 2, 2, 2, 2, 2, 2, 2, 2, 2, 2, 2, 2, 2
Branch- 1: 2, 0, 0, 0, 0, 0, 0, 0, 0, 0, 0, 0, 0, 0, 0, 0, 0, 0, 0, 0, 0, 0, 0, 0, 0, 0, 0, 0, 0, 0, 0, 0
Branch Status: 2
Branch- 0: 0, 2, 2, 2, 2, 2, 2, 2, 2, 2, 2, 2, 2, 2, 2, 2, 2, 2, 2, 2, 2, 2, 2, 2, 2, 2, 2, 2, 2, 2, 2, 2
Branch- 1: 2, 0, 0, 0, 0, 0, 0, 0, 0, 0, 0, 0, 0, 0, 0, 0, 0, 0, 0, 0, 0, 0, 0, 0, 0, 0, 0, 0, 0, 0, 0, 0
Branch Status: 2
Branch- 0: 0, 2, 2, 2, 2, 2, 2, 2, 2, 2, 2, 2, 2, 2, 2, 2, 2, 2, 2, 2, 2, 2, 2, 2, 2, 2, 2, 2, 2, 2, 2, 2
Branch- 1: 2, 0, 0, 0, 0, 0, 0, 0, 0, 0, 0, 0, 0, 0, 0, 0, 0, 0, 0, 0, 0, 0, 0, 0, 0, 0, 0, 0, 0, 0, 0, 0
Branch Status: 2
Branch- 0: 0, 2, 2, 2, 2, 2, 2, 2, 2, 2, 2, 2, 2, 2, 2, 2, 2, 2, 2, 2, 2, 2, 2, 2, 2, 2, 2, 2, 2, 2, 2, 2
Branch- 1: 2, 0, 0, 0, 0, 0, 0, 0, 0, 0, 0, 0, 0, 0, 0, 0, 0, 0, 0, 0, 0, 0, 0, 0, 0, 0, 0, 0, 0, 0, 0, 0
Branch Status: 2
Branch- 0: 0, 2, 2, 2, 2, 2, 2, 2, 2, 2, 2, 2, 2, 2, 2, 2, 2, 2, 2, 2, 2, 2, 2, 2, 2, 2, 2, 2, 2, 2, 2, 2
Branch- 1: 2, 0, 0, 0, 0, 0, 0, 0, 0, 0, 0, 0, 0, 0, 0, 0, 0, 0, 0, 0, 0, 0, 0, 0, 0, 0, 0, 0, 0, 0, 0, 0
Branch Status: 2
Branch- 0: 0, 2, 2, 2, 2, 2, 2, 2, 2, 2, 2, 2, 2, 2, 2, 2, 2, 2, 2, 2, 2, 2, 2, 2, 2, 2, 2, 2, 2, 2, 2, 2
Branch- 1: 2, 0, 0, 0, 0, 0, 0, 0, 0, 0, 0, 0, 0, 0, 0, 0, 0, 0, 0, 0, 0, 0, 0, 0, 0, 0, 0, 0, 0, 0, 0, 0
Branch Status: 2
Branch- 0: 0, 2, 2, 2, 2, 2, 2, 2, 2, 2, 2, 2, 2, 2, 2, 2, 2, 2, 2, 2, 2, 2, 2, 2, 2, 2, 2, 2, 2, 2, 2, 2
Branch- 1: 2, 0, 0, 0, 0, 0, 0, 0, 0, 0, 0, 0, 0, 0, 0, 0, 0, 0, 0, 0, 0, 0, 0, 0, 0, 0, 0, 0, 0, 0, 0, 0
Branch Status: 2
Branch- 0: 0, 2, 2, 2, 2, 2, 2, 2, 2, 2, 2, 2, 2, 2, 2, 2, 2, 2, 2, 2, 2, 2, 2, 2, 2, 2, 2, 2, 2, 2, 2, 2
Branch- 1: 2, 0, 0, 0, 0, 0, 0, 0, 0, 0, 0, 0, 0, 0, 0, 0, 0, 0, 0, 0, 0, 0, 0, 0, 0, 0, 0, 0, 0, 0, 0, 0
Branch Status: 2
Branch- 0: 0, 2, 2, 2, 2, 2, 2, 2, 2, 2, 2, 2, 2, 2, 2, 2, 2, 2, 2, 2, 2, 2, 2, 2, 2, 2, 2, 2, 2, 2, 2, 2
Branch- 1: 2, 0, 0, 0, 0, 0, 0, 0, 0, 0, 0, 0, 0, 0, 0, 0, 0, 0, 0, 0, 0, 0, 0, 0, 0, 0, 0, 0, 0, 0, 0, 0
Branch Status: 2
Branch- 0: 0, 2, 2, 2, 2, 2, 2, 2, 2, 2, 2, 2, 2, 2, 2, 2, 2, 2, 2, 2, 2, 2, 2, 2, 2, 2, 2, 2, 2, 2, 2, 2
Branch- 1: 2, 0, 0, 0, 0, 0, 0, 0, 0, 0, 0, 0, 0, 0, 0, 0, 0, 0, 0, 0, 0, 0, 0, 0, 0, 0, 0, 0, 0, 0, 0, 0
Branch Status: 2
Branch- 0: 0, 2, 2, 2, 2, 2, 2, 2, 2, 2, 2, 2, 2, 2, 2, 2, 2, 2, 2, 2, 2, 2, 2, 2, 2, 2, 2, 2, 2, 2, 2, 2
Branch- 1: 2, 0, 0, 0, 0, 0, 0, 0, 0, 0, 0, 0, 0, 0, 0, 0, 0, 0, 0, 0, 0, 0, 0, 0, 0, 0, 0, 0, 0, 0, 0, 0
Branch Status: 2
Branch- 0: 0, 2, 2, 2, 2, 2, 2, 2, 2, 2, 2, 2, 2, 2, 2, 2, 2, 2, 2, 2, 2, 2, 2, 2, 2, 2, 2, 2, 2, 2, 2, 2
Branch- 1: 2, 0, 0, 0, 0, 0, 0, 0, 0, 0, 0, 0, 0, 0, 0, 0, 0, 0, 0, 0, 0, 0, 0, 0, 0, 0, 0, 0, 0, 0, 0, 0
Branch Status: 2
Branch- 0: 0, 2, 2, 2, 2, 2, 2, 2, 2, 2, 2, 2, 2, 2, 2, 2, 2, 2, 2, 2, 2, 2, 2, 2, 2, 2, 2, 2, 2, 2, 2, 2
Branch- 1: 2, 0, 0, 0, 0, 0, 0, 0, 0, 0, 0, 0, 0, 0, 0, 0, 0, 0, 0, 0, 0, 0, 0, 0, 0, 0, 0, 0, 0, 0, 0, 0
Branch Status: 2
Branch- 0: 0, 2, 2, 2, 2, 2, 2, 2, 2, 2, 2, 2, 2, 2, 2, 2, 2, 2, 2, 2, 2, 2, 2, 2, 2, 2, 2, 2, 2, 2, 2, 2
Branch- 1: 2, 0, 0, 0, 0, 0, 0, 0, 0, 0, 0, 0, 0, 0, 0, 0, 0, 0, 0, 0, 0, 0, 0, 0, 0, 0, 0, 0, 0, 0, 0, 0
Branch Status: 2
Branch- 0: 0, 2, 2, 2, 2, 2, 2, 2, 2, 2, 2, 2, 2, 2, 2, 2, 2, 2, 2, 2, 2, 2, 2, 2, 2, 2, 2, 2, 2, 2, 2, 2
Branch- 1: 2, 0, 0, 0, 0, 0, 0, 0, 0, 0, 0, 0, 0, 0, 0, 0, 0, 0, 0, 0, 0, 0, 0, 0, 0, 0, 0, 0, 0, 0, 0, 0
Branch Status: 2
Branch- 0: 0, 2, 2, 2, 2, 2, 2, 2, 2, 2, 2, 2, 2, 2, 2, 2, 2, 2, 2, 2, 2, 2, 2, 2, 2, 2, 2, 2, 2, 2, 2, 2
Branch- 1: 2, 0, 0, 0, 0, 0, 0, 0, 0, 0, 0, 0, 0, 0, 0, 0, 0, 0, 0, 0, 0, 0, 0, 0, 0, 0, 0, 0, 0, 0, 0, 0
Branch Status: 2
Branch- 0: 0, 2, 2, 2, 2, 2, 2, 2, 2, 2, 2, 2, 2, 2, 2, 2, 2, 2, 2, 2, 2, 2, 2, 2, 2, 2, 2, 2, 2, 2, 2, 2
Branch- 1: 2, 0, 0, 0, 0, 0, 0, 0, 0, 0, 0, 0, 0, 0, 0, 0, 0, 0, 0, 0, 0, 0, 0, 0, 0, 0, 0, 0, 0, 0, 0, 0
Branch Status: 2
Branch- 0: 0, 2, 2, 2, 2, 2, 2, 2, 2, 2, 2, 2, 2, 2, 2, 2, 2, 2, 2, 2, 2, 2, 2, 2, 2, 2, 2, 2, 2, 2, 2, 2
Branch- 1: 2, 0, 0, 0, 0, 0, 0, 0, 0, 0, 0, 0, 0, 0, 0, 0, 0, 0, 0, 0, 0, 0, 0, 0, 0, 0, 0, 0, 0, 0, 0, 0
Branch Status: 2
Branch- 0: 0, 2, 2, 2, 2, 2, 2, 2, 2, 2, 2, 2, 2, 2, 2, 2, 2, 2, 2, 2, 2, 2, 2, 2, 2, 2, 2, 2, 2, 2, 2, 2
Branch- 1: 2, 0, 0, 0, 0, 0, 0, 0, 0, 0, 0, 0, 0, 0, 0, 0, 0, 0, 0, 0, 0, 0, 0, 0, 0, 0, 0, 0, 0, 0, 0, 0
Branch Status: 2
Branch- 0: 0, 2, 2, 2, 2, 2, 2, 2, 2, 2, 2, 2, 2, 2, 2, 2, 2, 2, 2, 2, 2, 2, 2, 2, 2, 2, 2, 2, 2, 2, 2, 2
Branch- 1: 2, 0, 0, 0, 0, 0, 0, 0, 0, 0, 0, 0, 0, 0, 0, 0, 0, 0, 0, 0, 0, 0, 0, 0, 0, 0, 0, 0, 0, 0, 0, 0
Branch Status: 2
Branch- 0: 0, 2, 2, 2, 2, 2, 2, 2, 2, 2, 2, 2, 2, 2, 2, 2, 2, 2, 2, 2, 2, 2, 2, 2, 2, 2, 2, 2, 2, 2, 2, 2
Branch- 1: 2, 0, 0, 0, 0, 0, 0, 0, 0, 0, 0, 0, 0, 0, 0, 0, 0, 0, 0, 0, 0, 0, 0, 0, 0, 0, 0, 0, 0, 0, 0, 0
Branch Status: 2
Branch- 0: 0, 2, 2, 2, 2, 2, 2, 2, 2, 2, 2, 2, 2, 2, 2, 2, 2, 2, 2, 2, 2, 2, 2, 2, 2, 2, 2, 2, 2, 2, 2, 2
Branch- 1: 2, 0, 0, 0, 0, 0, 0, 0, 0, 0, 0, 0, 0, 0, 0, 0, 0, 0, 0, 0, 0, 0, 0, 0, 0, 0, 0, 0, 0, 0, 0, 0
Branch Status: 2
Branch- 0: 0, 2, 2, 2, 2, 2, 2, 2, 2, 2, 2, 2, 2, 2, 2, 2, 2, 2, 2, 2, 2, 2, 2, 2, 2, 2, 2, 2, 2, 2, 2, 2
Branch- 1: 2, 0, 0, 0, 0, 0, 0, 0, 0, 0, 0, 0, 0, 0, 0, 0, 0, 0, 0, 0, 0, 0, 0, 0, 0, 0, 0, 0, 0, 0, 0, 0
Branch Status: 2
Branch- 0: 0, 2, 2, 2, 2, 2, 2, 2, 2, 2, 2, 2, 2, 2, 2, 2, 2, 2, 2, 2, 2, 2, 2, 2, 2, 2, 2, 2, 2, 2, 2, 2
Branch- 1: 2, 0, 0, 0, 0, 0, 0, 0, 0, 0, 0, 0, 0, 0, 0, 0, 0, 0, 0, 0, 0, 0, 0, 0, 0, 0, 0, 0, 0, 0, 0, 0
Branch Status: 2
Branch- 0: 0, 2, 2, 2, 2, 2, 2, 2, 2, 2, 2, 2, 2, 2, 2, 2, 2, 2, 2, 2, 2, 2, 2, 2, 2, 2, 2, 2, 2, 2, 2, 2
Branch- 1: 2, 0, 0, 0, 0, 0, 0, 0, 0, 0, 0, 0, 0, 0, 0, 0, 0, 0, 0, 0, 0, 0, 0, 0, 0, 0, 0, 0, 0, 0, 0, 0
Branch Status: 2
Branch- 0: 0, 2, 2, 2, 2, 2, 2, 2, 2, 2, 2, 2, 2, 2, 2, 2, 2, 2, 2, 2, 2, 2, 2, 2, 2, 2, 2, 2, 2, 2, 2, 2
Branch- 1: 2, 0, 0, 0, 0, 0, 0, 0, 0, 0, 0, 0, 0, 0, 0, 0, 0, 0, 0, 0, 0, 0, 0, 0, 0, 0, 0, 0, 0, 0, 0, 0
Branch Status: 2
Branch- 0: 0, 2, 2, 2, 2, 2, 2, 2, 2, 2, 2, 2, 2, 2, 2, 2, 2, 2, 2, 2, 2, 2, 2, 2, 2, 2, 2, 2, 2, 2, 2, 2
Branch- 1: 2, 0, 0, 0, 0, 0, 0, 0, 0, 0, 0, 0, 0, 0, 0, 0, 0, 0, 0, 0, 0, 0, 0, 0, 0, 0, 0, 0, 0, 0, 0, 0
Branch Status: 2
Branch- 0: 0, 2, 2, 2, 2, 2, 2, 2, 2, 2, 2, 2, 2, 2, 2, 2, 2, 2, 2, 2, 2, 2, 2, 2, 2, 2, 2, 2, 2, 2, 2, 2
Branch- 1: 2, 0, 0, 0, 0, 0, 0, 0, 0, 0, 0, 0, 0, 0, 0, 0, 0, 0, 0, 0, 0, 0, 0, 0, 0, 0, 0, 0, 0, 0, 0, 0
Branch Status: 2
Branch- 0: 0, 2, 2, 2, 2, 2, 2, 2, 2, 2, 2, 2, 2, 2, 2, 2, 2, 2, 2, 2, 2, 2, 2, 2, 2, 2, 2, 2, 2, 2, 2, 2
Branch- 1: 2, 0, 0, 0, 0, 0, 0, 0, 0, 0, 0, 0, 0, 0, 0, 0, 0, 0, 0, 0, 0, 0, 0, 0, 0, 0, 0, 0, 0, 0, 0, 0
Branch Status: 2
Branch- 0: 0, 2, 2, 2, 2, 2, 2, 2, 2, 2, 2, 2, 2, 2, 2, 2, 2, 2, 2, 2, 2, 2, 2, 2, 2, 2, 2, 2, 2, 2, 2, 2
Branch- 1: 2, 0, 0, 0, 0, 0, 0, 0, 0, 0, 0, 0, 0, 0, 0, 0, 0, 0, 0, 0, 0, 0, 0, 0, 0, 0, 0, 0, 0, 0, 0, 0
Branch Status: 2
Branch- 0: 0, 2, 2, 2, 2, 2, 2, 2, 2, 2, 2, 2, 2, 2, 2, 2, 2, 2, 2, 2, 2, 2, 2, 2, 2, 2, 2, 2, 2, 2, 2, 2
Branch- 1: 2, 0, 0, 0, 0, 0, 0, 0, 0, 0, 0, 0, 0, 0, 0, 0, 0, 0, 0, 0, 0, 0, 0, 0, 0, 0, 0, 0, 0, 0, 0, 0
GPGPU-Sim PTX: 7900000 instructions simulated : ctaid=(75,1,0) tid=(11,0,0)
Branch Status: 2
Branch- 0: 0, 2, 2, 2, 2, 2, 2, 2, 2, 2, 2, 2, 2, 2, 2, 2, 2, 2, 2, 2, 2, 2, 2, 2, 2, 2, 2, 2, 2, 2, 2, 2
Branch- 1: 2, 0, 0, 0, 0, 0, 0, 0, 0, 0, 0, 0, 0, 0, 0, 0, 0, 0, 0, 0, 0, 0, 0, 0, 0, 0, 0, 0, 0, 0, 0, 0
Branch Status: 2
Branch- 0: 0, 2, 2, 2, 2, 2, 2, 2, 2, 2, 2, 2, 2, 2, 2, 2, 2, 2, 2, 2, 2, 2, 2, 2, 2, 2, 2, 2, 2, 2, 2, 2
Branch- 1: 2, 0, 0, 0, 0, 0, 0, 0, 0, 0, 0, 0, 0, 0, 0, 0, 0, 0, 0, 0, 0, 0, 0, 0, 0, 0, 0, 0, 0, 0, 0, 0
Branch Status: 2
Branch- 0: 0, 2, 2, 2, 2, 2, 2, 2, 2, 2, 2, 2, 2, 2, 2, 2, 2, 2, 2, 2, 2, 2, 2, 2, 2, 2, 2, 2, 2, 2, 2, 2
Branch- 1: 2, 0, 0, 0, 0, 0, 0, 0, 0, 0, 0, 0, 0, 0, 0, 0, 0, 0, 0, 0, 0, 0, 0, 0, 0, 0, 0, 0, 0, 0, 0, 0
Branch Status: 2
Branch- 0: 0, 2, 2, 2, 2, 2, 2, 2, 2, 2, 2, 2, 2, 2, 2, 2, 2, 2, 2, 2, 2, 2, 2, 2, 2, 2, 2, 2, 2, 2, 2, 2
Branch- 1: 2, 0, 0, 0, 0, 0, 0, 0, 0, 0, 0, 0, 0, 0, 0, 0, 0, 0, 0, 0, 0, 0, 0, 0, 0, 0, 0, 0, 0, 0, 0, 0
Branch Status: 2
Branch- 0: 0, 2, 2, 2, 2, 2, 2, 2, 2, 2, 2, 2, 2, 2, 2, 2, 2, 2, 2, 2, 2, 2, 2, 2, 2, 2, 2, 2, 2, 2, 2, 2
Branch- 1: 2, 0, 0, 0, 0, 0, 0, 0, 0, 0, 0, 0, 0, 0, 0, 0, 0, 0, 0, 0, 0, 0, 0, 0, 0, 0, 0, 0, 0, 0, 0, 0
Branch Status: 2
Branch- 0: 0, 2, 2, 2, 2, 2, 2, 2, 2, 2, 2, 2, 2, 2, 2, 2, 2, 2, 2, 2, 2, 2, 2, 2, 2, 2, 2, 2, 2, 2, 2, 2
Branch- 1: 2, 0, 0, 0, 0, 0, 0, 0, 0, 0, 0, 0, 0, 0, 0, 0, 0, 0, 0, 0, 0, 0, 0, 0, 0, 0, 0, 0, 0, 0, 0, 0
Branch Status: 2
Branch- 0: 0, 2, 2, 2, 2, 2, 2, 2, 2, 2, 2, 2, 2, 2, 2, 2, 2, 2, 2, 2, 2, 2, 2, 2, 2, 2, 2, 2, 2, 2, 2, 2
Branch- 1: 2, 0, 0, 0, 0, 0, 0, 0, 0, 0, 0, 0, 0, 0, 0, 0, 0, 0, 0, 0, 0, 0, 0, 0, 0, 0, 0, 0, 0, 0, 0, 0
Branch Status: 2
Branch- 0: 0, 2, 2, 2, 2, 2, 2, 2, 2, 2, 2, 2, 2, 2, 2, 2, 2, 2, 2, 2, 2, 2, 2, 2, 2, 2, 2, 2, 2, 2, 2, 2
Branch- 1: 2, 0, 0, 0, 0, 0, 0, 0, 0, 0, 0, 0, 0, 0, 0, 0, 0, 0, 0, 0, 0, 0, 0, 0, 0, 0, 0, 0, 0, 0, 0, 0
Branch Status: 2
Branch- 0: 0, 2, 2, 2, 2, 2, 2, 2, 2, 2, 2, 2, 2, 2, 2, 2, 2, 2, 2, 2, 2, 2, 2, 2, 2, 2, 2, 2, 2, 2, 2, 2
Branch- 1: 2, 0, 0, 0, 0, 0, 0, 0, 0, 0, 0, 0, 0, 0, 0, 0, 0, 0, 0, 0, 0, 0, 0, 0, 0, 0, 0, 0, 0, 0, 0, 0
Branch Status: 2
Branch- 0: 0, 2, 2, 2, 2, 2, 2, 2, 2, 2, 2, 2, 2, 2, 2, 2, 2, 2, 2, 2, 2, 2, 2, 2, 2, 2, 2, 2, 2, 2, 2, 2
Branch- 1: 2, 0, 0, 0, 0, 0, 0, 0, 0, 0, 0, 0, 0, 0, 0, 0, 0, 0, 0, 0, 0, 0, 0, 0, 0, 0, 0, 0, 0, 0, 0, 0
Branch Status: 2
Branch- 0: 0, 2, 2, 2, 2, 2, 2, 2, 2, 2, 2, 2, 2, 2, 2, 2, 2, 2, 2, 2, 2, 2, 2, 2, 2, 2, 2, 2, 2, 2, 2, 2
Branch- 1: 2, 0, 0, 0, 0, 0, 0, 0, 0, 0, 0, 0, 0, 0, 0, 0, 0, 0, 0, 0, 0, 0, 0, 0, 0, 0, 0, 0, 0, 0, 0, 0
Branch Status: 2
Branch- 0: 0, 2, 2, 2, 2, 2, 2, 2, 2, 2, 2, 2, 2, 2, 2, 2, 2, 2, 2, 2, 2, 2, 2, 2, 2, 2, 2, 2, 2, 2, 2, 2
Branch- 1: 2, 0, 0, 0, 0, 0, 0, 0, 0, 0, 0, 0, 0, 0, 0, 0, 0, 0, 0, 0, 0, 0, 0, 0, 0, 0, 0, 0, 0, 0, 0, 0
Branch Status: 2
Branch- 0: 0, 2, 2, 2, 2, 2, 2, 2, 2, 2, 2, 2, 2, 2, 2, 2, 2, 2, 2, 2, 2, 2, 2, 2, 2, 2, 2, 2, 2, 2, 2, 2
Branch- 1: 2, 0, 0, 0, 0, 0, 0, 0, 0, 0, 0, 0, 0, 0, 0, 0, 0, 0, 0, 0, 0, 0, 0, 0, 0, 0, 0, 0, 0, 0, 0, 0
Branch Status: 2
Branch- 0: 0, 2, 2, 2, 2, 2, 2, 2, 2, 2, 2, 2, 2, 2, 2, 2, 2, 2, 2, 2, 2, 2, 2, 2, 2, 2, 2, 2, 2, 2, 2, 2
Branch- 1: 2, 0, 0, 0, 0, 0, 0, 0, 0, 0, 0, 0, 0, 0, 0, 0, 0, 0, 0, 0, 0, 0, 0, 0, 0, 0, 0, 0, 0, 0, 0, 0
Branch Status: 2
Branch- 0: 0, 2, 2, 2, 2, 2, 2, 2, 2, 2, 2, 2, 2, 2, 2, 2, 2, 2, 2, 2, 2, 2, 2, 2, 2, 2, 2, 2, 2, 2, 2, 2
Branch- 1: 2, 0, 0, 0, 0, 0, 0, 0, 0, 0, 0, 0, 0, 0, 0, 0, 0, 0, 0, 0, 0, 0, 0, 0, 0, 0, 0, 0, 0, 0, 0, 0
Branch Status: 2
Branch- 0: 0, 2, 2, 2, 2, 2, 2, 2, 2, 2, 2, 2, 2, 2, 2, 2, 2, 2, 2, 2, 2, 2, 2, 2, 2, 2, 2, 2, 2, 2, 2, 2
Branch- 1: 2, 0, 0, 0, 0, 0, 0, 0, 0, 0, 0, 0, 0, 0, 0, 0, 0, 0, 0, 0, 0, 0, 0, 0, 0, 0, 0, 0, 0, 0, 0, 0
Branch Status: 2
Branch- 0: 0, 2, 2, 2, 2, 2, 2, 2, 2, 2, 2, 2, 2, 2, 2, 2, 2, 2, 2, 2, 2, 2, 2, 2, 2, 2, 2, 2, 2, 2, 2, 2
Branch- 1: 2, 0, 0, 0, 0, 0, 0, 0, 0, 0, 0, 0, 0, 0, 0, 0, 0, 0, 0, 0, 0, 0, 0, 0, 0, 0, 0, 0, 0, 0, 0, 0
Branch Status: 2
Branch- 0: 0, 2, 2, 2, 2, 2, 2, 2, 2, 2, 2, 2, 2, 2, 2, 2, 2, 2, 2, 2, 2, 2, 2, 2, 2, 2, 2, 2, 2, 2, 2, 2
Branch- 1: 2, 0, 0, 0, 0, 0, 0, 0, 0, 0, 0, 0, 0, 0, 0, 0, 0, 0, 0, 0, 0, 0, 0, 0, 0, 0, 0, 0, 0, 0, 0, 0
Branch Status: 2
Branch- 0: 0, 2, 2, 2, 2, 2, 2, 2, 2, 2, 2, 2, 2, 2, 2, 2, 2, 2, 2, 2, 2, 2, 2, 2, 2, 2, 2, 2, 2, 2, 2, 2
Branch- 1: 2, 0, 0, 0, 0, 0, 0, 0, 0, 0, 0, 0, 0, 0, 0, 0, 0, 0, 0, 0, 0, 0, 0, 0, 0, 0, 0, 0, 0, 0, 0, 0
Branch Status: 2
Branch- 0: 0, 2, 2, 2, 2, 2, 2, 2, 2, 2, 2, 2, 2, 2, 2, 2, 2, 2, 2, 2, 2, 2, 2, 2, 2, 2, 2, 2, 2, 2, 2, 2
Branch- 1: 2, 0, 0, 0, 0, 0, 0, 0, 0, 0, 0, 0, 0, 0, 0, 0, 0, 0, 0, 0, 0, 0, 0, 0, 0, 0, 0, 0, 0, 0, 0, 0
Branch Status: 2
Branch- 0: 0, 2, 2, 2, 2, 2, 2, 2, 2, 2, 2, 2, 2, 2, 2, 2, 2, 2, 2, 2, 2, 2, 2, 2, 2, 2, 2, 2, 2, 2, 2, 2
Branch- 1: 2, 0, 0, 0, 0, 0, 0, 0, 0, 0, 0, 0, 0, 0, 0, 0, 0, 0, 0, 0, 0, 0, 0, 0, 0, 0, 0, 0, 0, 0, 0, 0
Branch Status: 2
Branch- 0: 0, 2, 2, 2, 2, 2, 2, 2, 2, 2, 2, 2, 2, 2, 2, 2, 2, 2, 2, 2, 2, 2, 2, 2, 2, 2, 2, 2, 2, 2, 2, 2
Branch- 1: 2, 0, 0, 0, 0, 0, 0, 0, 0, 0, 0, 0, 0, 0, 0, 0, 0, 0, 0, 0, 0, 0, 0, 0, 0, 0, 0, 0, 0, 0, 0, 0
Branch Status: 2
Branch- 0: 0, 2, 2, 2, 2, 2, 2, 2, 2, 2, 2, 2, 2, 2, 2, 2, 2, 2, 2, 2, 2, 2, 2, 2, 2, 2, 2, 2, 2, 2, 2, 2
Branch- 1: 2, 0, 0, 0, 0, 0, 0, 0, 0, 0, 0, 0, 0, 0, 0, 0, 0, 0, 0, 0, 0, 0, 0, 0, 0, 0, 0, 0, 0, 0, 0, 0
Branch Status: 2
Branch- 0: 0, 2, 2, 2, 2, 2, 2, 2, 2, 2, 2, 2, 2, 2, 2, 2, 2, 2, 2, 2, 2, 2, 2, 2, 2, 2, 2, 2, 2, 2, 2, 2
Branch- 1: 2, 0, 0, 0, 0, 0, 0, 0, 0, 0, 0, 0, 0, 0, 0, 0, 0, 0, 0, 0, 0, 0, 0, 0, 0, 0, 0, 0, 0, 0, 0, 0
Branch Status: 2
Branch- 0: 0, 2, 2, 2, 2, 2, 2, 2, 2, 2, 2, 2, 2, 2, 2, 2, 2, 2, 2, 2, 2, 2, 2, 2, 2, 2, 2, 2, 2, 2, 2, 2
Branch- 1: 2, 0, 0, 0, 0, 0, 0, 0, 0, 0, 0, 0, 0, 0, 0, 0, 0, 0, 0, 0, 0, 0, 0, 0, 0, 0, 0, 0, 0, 0, 0, 0
Branch Status: 2
Branch- 0: 0, 2, 2, 2, 2, 2, 2, 2, 2, 2, 2, 2, 2, 2, 2, 2, 2, 2, 2, 2, 2, 2, 2, 2, 2, 2, 2, 2, 2, 2, 2, 2
Branch- 1: 2, 0, 0, 0, 0, 0, 0, 0, 0, 0, 0, 0, 0, 0, 0, 0, 0, 0, 0, 0, 0, 0, 0, 0, 0, 0, 0, 0, 0, 0, 0, 0
Branch Status: 2
Branch- 0: 0, 2, 2, 2, 2, 2, 2, 2, 2, 2, 2, 2, 2, 2, 2, 2, 2, 2, 2, 2, 2, 2, 2, 2, 2, 2, 2, 2, 2, 2, 2, 2
Branch- 1: 2, 0, 0, 0, 0, 0, 0, 0, 0, 0, 0, 0, 0, 0, 0, 0, 0, 0, 0, 0, 0, 0, 0, 0, 0, 0, 0, 0, 0, 0, 0, 0
Branch Status: 2
Branch- 0: 0, 2, 2, 2, 2, 2, 2, 2, 2, 2, 2, 2, 2, 2, 2, 2, 2, 2, 2, 2, 2, 2, 2, 2, 2, 2, 2, 2, 2, 2, 2, 2
Branch- 1: 2, 0, 0, 0, 0, 0, 0, 0, 0, 0, 0, 0, 0, 0, 0, 0, 0, 0, 0, 0, 0, 0, 0, 0, 0, 0, 0, 0, 0, 0, 0, 0
Branch Status: 2
Branch- 0: 0, 2, 2, 2, 2, 2, 2, 2, 2, 2, 2, 2, 2, 2, 2, 2, 2, 2, 2, 2, 2, 2, 2, 2, 2, 2, 2, 2, 2, 2, 2, 2
Branch- 1: 2, 0, 0, 0, 0, 0, 0, 0, 0, 0, 0, 0, 0, 0, 0, 0, 0, 0, 0, 0, 0, 0, 0, 0, 0, 0, 0, 0, 0, 0, 0, 0
Branch Status: 2
Branch- 0: 0, 2, 2, 2, 2, 2, 2, 2, 2, 2, 2, 2, 2, 2, 2, 2, 2, 2, 2, 2, 2, 2, 2, 2, 2, 2, 2, 2, 2, 2, 2, 2
Branch- 1: 2, 0, 0, 0, 0, 0, 0, 0, 0, 0, 0, 0, 0, 0, 0, 0, 0, 0, 0, 0, 0, 0, 0, 0, 0, 0, 0, 0, 0, 0, 0, 0
Branch Status: 2
Branch- 0: 0, 2, 2, 2, 2, 2, 2, 2, 2, 2, 2, 2, 2, 2, 2, 2, 2, 2, 2, 2, 2, 2, 2, 2, 2, 2, 2, 2, 2, 2, 2, 2
Branch- 1: 2, 0, 0, 0, 0, 0, 0, 0, 0, 0, 0, 0, 0, 0, 0, 0, 0, 0, 0, 0, 0, 0, 0, 0, 0, 0, 0, 0, 0, 0, 0, 0
Branch Status: 2
Branch- 0: 0, 2, 2, 2, 2, 2, 2, 2, 2, 2, 2, 2, 2, 2, 2, 2, 2, 2, 2, 2, 2, 2, 2, 2, 2, 2, 2, 2, 2, 2, 2, 2
Branch- 1: 2, 0, 0, 0, 0, 0, 0, 0, 0, 0, 0, 0, 0, 0, 0, 0, 0, 0, 0, 0, 0, 0, 0, 0, 0, 0, 0, 0, 0, 0, 0, 0
Branch Status: 2
Branch- 0: 0, 2, 2, 2, 2, 2, 2, 2, 2, 2, 2, 2, 2, 2, 2, 2, 2, 2, 2, 2, 2, 2, 2, 2, 2, 2, 2, 2, 2, 2, 2, 2
Branch- 1: 2, 0, 0, 0, 0, 0, 0, 0, 0, 0, 0, 0, 0, 0, 0, 0, 0, 0, 0, 0, 0, 0, 0, 0, 0, 0, 0, 0, 0, 0, 0, 0
Branch Status: 2
Branch- 0: 2, 2, 2, 2, 2, 2, 2, 2, 2, 2, 2, 2, 2, 2, 2, 2, 2, 2, 2, 2, 2, 2, 2, 0, 2, 2, 2, 2, 2, 2, 2, 2
Branch- 1: 0, 0, 0, 0, 0, 0, 0, 0, 0, 0, 0, 0, 0, 0, 0, 0, 0, 0, 0, 0, 0, 0, 0, 2, 2, 2, 2, 2, 2, 2, 2, 2
Branch Status: 2
Branch- 0: 0, 2, 2, 2, 2, 2, 2, 2, 2, 2, 2, 2, 2, 2, 2, 2, 2, 2, 2, 2, 2, 2, 2, 2, 2, 2, 2, 2, 2, 2, 2, 2
Branch- 1: 2, 0, 0, 0, 0, 0, 0, 0, 0, 0, 0, 0, 0, 0, 0, 0, 0, 0, 0, 0, 0, 0, 0, 0, 0, 0, 0, 0, 0, 0, 0, 0
Branch Status: 2
Branch- 0: 0, 2, 2, 2, 2, 2, 2, 2, 2, 2, 2, 2, 2, 2, 2, 2, 2, 2, 2, 2, 2, 2, 2, 2, 2, 2, 2, 2, 2, 2, 2, 2
Branch- 1: 2, 0, 0, 0, 0, 0, 0, 0, 0, 0, 0, 0, 0, 0, 0, 0, 0, 0, 0, 0, 0, 0, 0, 0, 0, 0, 0, 0, 0, 0, 0, 0
Branch Status: 2
Branch- 0: 2, 2, 2, 2, 2, 2, 2, 2, 2, 2, 2, 2, 2, 2, 2, 2, 2, 2, 2, 2, 2, 2, 2, 0, 2, 2, 2, 2, 2, 2, 2, 2
Branch- 1: 0, 0, 0, 0, 0, 0, 0, 0, 0, 0, 0, 0, 0, 0, 0, 0, 0, 0, 0, 0, 0, 0, 0, 2, 2, 2, 2, 2, 2, 2, 2, 2
Branch Status: 2
Branch- 0: 0, 2, 2, 2, 2, 2, 2, 2, 2, 2, 2, 2, 2, 2, 2, 2, 2, 2, 2, 2, 2, 2, 2, 2, 2, 2, 2, 2, 2, 2, 2, 2
Branch- 1: 2, 0, 0, 0, 0, 0, 0, 0, 0, 0, 0, 0, 0, 0, 0, 0, 0, 0, 0, 0, 0, 0, 0, 0, 0, 0, 0, 0, 0, 0, 0, 0
GPGPU-Sim PTX: 8000000 instructions simulated : ctaid=(75,1,0) tid=(93,0,0)
Branch Status: 2
Branch- 0: 2, 2, 2, 2, 2, 2, 2, 2, 2, 2, 2, 2, 2, 2, 2, 2, 2, 2, 2, 2, 2, 2, 2, 0, 2, 2, 2, 2, 2, 2, 2, 2
Branch- 1: 0, 0, 0, 0, 0, 0, 0, 0, 0, 0, 0, 0, 0, 0, 0, 0, 0, 0, 0, 0, 0, 0, 0, 2, 2, 2, 2, 2, 2, 2, 2, 2
Branch Status: 2
Branch- 0: 0, 2, 2, 2, 2, 2, 2, 2, 2, 2, 2, 2, 2, 2, 2, 2, 2, 2, 2, 2, 2, 2, 2, 2, 2, 2, 2, 2, 2, 2, 2, 2
Branch- 1: 2, 0, 0, 0, 0, 0, 0, 0, 0, 0, 0, 0, 0, 0, 0, 0, 0, 0, 0, 0, 0, 0, 0, 0, 0, 0, 0, 0, 0, 0, 0, 0
Branch Status: 2
Branch- 0: 0, 2, 2, 2, 2, 2, 2, 2, 2, 2, 2, 2, 2, 2, 2, 2, 2, 2, 2, 2, 2, 2, 2, 2, 2, 2, 2, 2, 2, 2, 2, 2
Branch- 1: 2, 0, 0, 0, 0, 0, 0, 0, 0, 0, 0, 0, 0, 0, 0, 0, 0, 0, 0, 0, 0, 0, 0, 0, 0, 0, 0, 0, 0, 0, 0, 0
Branch Status: 2
Branch- 0: 2, 2, 2, 2, 2, 2, 2, 2, 2, 2, 2, 2, 2, 2, 2, 2, 2, 2, 2, 2, 2, 2, 2, 0, 2, 2, 2, 2, 2, 2, 2, 2
Branch- 1: 0, 0, 0, 0, 0, 0, 0, 0, 0, 0, 0, 0, 0, 0, 0, 0, 0, 0, 0, 0, 0, 0, 0, 2, 2, 2, 2, 2, 2, 2, 2, 2
Branch Status: 2
Branch- 0: 2, 2, 2, 2, 2, 2, 2, 2, 2, 2, 2, 2, 2, 2, 2, 2, 2, 2, 2, 2, 2, 2, 2, 0, 2, 2, 2, 2, 2, 2, 2, 2
Branch- 1: 0, 0, 0, 0, 0, 0, 0, 0, 0, 0, 0, 0, 0, 0, 0, 0, 0, 0, 0, 0, 0, 0, 0, 2, 2, 2, 2, 2, 2, 2, 2, 2
Branch Status: 2
Branch- 0: 2, 2, 2, 2, 2, 2, 2, 2, 2, 2, 2, 2, 2, 2, 2, 2, 2, 2, 2, 2, 2, 2, 2, 0, 2, 2, 2, 2, 2, 2, 2, 2
Branch- 1: 0, 0, 0, 0, 0, 0, 0, 0, 0, 0, 0, 0, 0, 0, 0, 0, 0, 0, 0, 0, 0, 0, 0, 2, 2, 2, 2, 2, 2, 2, 2, 2
Branch Status: 2
Branch- 0: 2, 2, 2, 2, 2, 2, 2, 2, 2, 2, 2, 2, 2, 2, 2, 2, 2, 2, 2, 2, 2, 2, 2, 0, 2, 2, 2, 2, 2, 2, 2, 2
Branch- 1: 0, 0, 0, 0, 0, 0, 0, 0, 0, 0, 0, 0, 0, 0, 0, 0, 0, 0, 0, 0, 0, 0, 0, 2, 2, 2, 2, 2, 2, 2, 2, 2
Branch Status: 2
Branch- 0: 2, 2, 2, 2, 2, 2, 2, 2, 2, 2, 2, 2, 2, 2, 2, 2, 2, 2, 2, 2, 2, 2, 2, 0, 2, 2, 2, 2, 2, 2, 2, 2
Branch- 1: 0, 0, 0, 0, 0, 0, 0, 0, 0, 0, 0, 0, 0, 0, 0, 0, 0, 0, 0, 0, 0, 0, 0, 2, 2, 2, 2, 2, 2, 2, 2, 2
Branch Status: 2
Branch- 0: 2, 2, 2, 2, 2, 2, 2, 2, 2, 2, 2, 2, 2, 2, 2, 2, 2, 2, 2, 2, 2, 2, 2, 0, 2, 2, 2, 2, 2, 2, 2, 2
Branch- 1: 0, 0, 0, 0, 0, 0, 0, 0, 0, 0, 0, 0, 0, 0, 0, 0, 0, 0, 0, 0, 0, 0, 0, 2, 2, 2, 2, 2, 2, 2, 2, 2
Branch Status: 2
Branch- 0: 2, 2, 2, 2, 2, 2, 2, 2, 2, 2, 2, 2, 2, 2, 2, 2, 2, 2, 2, 2, 2, 2, 2, 0, 2, 2, 2, 2, 2, 2, 2, 2
Branch- 1: 0, 0, 0, 0, 0, 0, 0, 0, 0, 0, 0, 0, 0, 0, 0, 0, 0, 0, 0, 0, 0, 0, 0, 2, 2, 2, 2, 2, 2, 2, 2, 2
Branch Status: 2
Branch- 0: 2, 2, 2, 2, 2, 2, 2, 2, 2, 2, 2, 2, 2, 2, 2, 2, 2, 2, 2, 2, 2, 2, 2, 0, 2, 2, 2, 2, 2, 2, 2, 2
Branch- 1: 0, 0, 0, 0, 0, 0, 0, 0, 0, 0, 0, 0, 0, 0, 0, 0, 0, 0, 0, 0, 0, 0, 0, 2, 2, 2, 2, 2, 2, 2, 2, 2
Branch Status: 2
Branch- 0: 2, 2, 2, 2, 2, 2, 2, 2, 2, 2, 2, 2, 2, 2, 2, 2, 2, 2, 2, 2, 2, 2, 2, 0, 2, 2, 2, 2, 2, 2, 2, 2
Branch- 1: 0, 0, 0, 0, 0, 0, 0, 0, 0, 0, 0, 0, 0, 0, 0, 0, 0, 0, 0, 0, 0, 0, 0, 2, 2, 2, 2, 2, 2, 2, 2, 2
Branch Status: 2
Branch- 0: 2, 2, 2, 2, 2, 2, 2, 2, 2, 2, 2, 2, 2, 2, 2, 2, 2, 2, 2, 2, 2, 2, 2, 0, 2, 2, 2, 2, 2, 2, 2, 2
Branch- 1: 0, 0, 0, 0, 0, 0, 0, 0, 0, 0, 0, 0, 0, 0, 0, 0, 0, 0, 0, 0, 0, 0, 0, 2, 2, 2, 2, 2, 2, 2, 2, 2
Branch Status: 2
Branch- 0: 2, 2, 2, 2, 2, 2, 2, 2, 2, 2, 2, 2, 2, 2, 2, 2, 2, 2, 2, 2, 2, 2, 2, 0, 2, 2, 2, 2, 2, 2, 2, 2
Branch- 1: 0, 0, 0, 0, 0, 0, 0, 0, 0, 0, 0, 0, 0, 0, 0, 0, 0, 0, 0, 0, 0, 0, 0, 2, 2, 2, 2, 2, 2, 2, 2, 2
Branch Status: 2
Branch- 0: 2, 2, 2, 2, 2, 2, 2, 2, 2, 2, 2, 2, 2, 2, 2, 2, 2, 2, 2, 2, 2, 2, 2, 0, 2, 2, 2, 2, 2, 2, 2, 2
Branch- 1: 0, 0, 0, 0, 0, 0, 0, 0, 0, 0, 0, 0, 0, 0, 0, 0, 0, 0, 0, 0, 0, 0, 0, 2, 2, 2, 2, 2, 2, 2, 2, 2
GPGPU-Sim PTX: 8100000 instructions simulated : ctaid=(74,1,0) tid=(19,0,0)
Branch Status: 2
Branch- 0: 0, 2, 2, 2, 2, 2, 2, 2, 2, 2, 2, 2, 2, 2, 2, 2, 2, 2, 2, 2, 2, 2, 2, 2, 2, 2, 2, 2, 2, 2, 2, 2
Branch- 1: 2, 0, 0, 0, 0, 0, 0, 0, 0, 0, 0, 0, 0, 0, 0, 0, 0, 0, 0, 0, 0, 0, 0, 0, 0, 0, 0, 0, 0, 0, 0, 0
Branch Status: 2
Branch- 0: 2, 2, 2, 2, 2, 2, 2, 2, 2, 2, 2, 2, 2, 2, 2, 2, 2, 2, 2, 2, 2, 2, 2, 0, 2, 2, 2, 2, 2, 2, 2, 2
Branch- 1: 0, 0, 0, 0, 0, 0, 0, 0, 0, 0, 0, 0, 0, 0, 0, 0, 0, 0, 0, 0, 0, 0, 0, 2, 2, 2, 2, 2, 2, 2, 2, 2
Branch Status: 2
Branch- 0: 0, 2, 2, 2, 2, 2, 2, 2, 2, 2, 2, 2, 2, 2, 2, 2, 2, 2, 2, 2, 2, 2, 2, 2, 2, 2, 2, 2, 2, 2, 2, 2
Branch- 1: 2, 0, 0, 0, 0, 0, 0, 0, 0, 0, 0, 0, 0, 0, 0, 0, 0, 0, 0, 0, 0, 0, 0, 0, 0, 0, 0, 0, 0, 0, 0, 0
Branch Status: 2
Branch- 0: 2, 2, 2, 2, 2, 2, 2, 2, 2, 2, 2, 2, 2, 2, 2, 2, 2, 2, 2, 2, 2, 2, 2, 0, 2, 2, 2, 2, 2, 2, 2, 2
Branch- 1: 0, 0, 0, 0, 0, 0, 0, 0, 0, 0, 0, 0, 0, 0, 0, 0, 0, 0, 0, 0, 0, 0, 0, 2, 2, 2, 2, 2, 2, 2, 2, 2
Branch Status: 2
Branch- 0: 2, 2, 2, 2, 2, 2, 2, 2, 2, 2, 2, 2, 2, 2, 2, 2, 2, 2, 2, 2, 2, 2, 2, 0, 2, 2, 2, 2, 2, 2, 2, 2
Branch- 1: 0, 0, 0, 0, 0, 0, 0, 0, 0, 0, 0, 0, 0, 0, 0, 0, 0, 0, 0, 0, 0, 0, 0, 2, 2, 2, 2, 2, 2, 2, 2, 2
Branch Status: 2
Branch- 0: 2, 2, 2, 2, 2, 2, 2, 2, 2, 2, 2, 2, 2, 2, 2, 2, 2, 2, 2, 2, 2, 2, 2, 0, 2, 2, 2, 2, 2, 2, 2, 2
Branch- 1: 0, 0, 0, 0, 0, 0, 0, 0, 0, 0, 0, 0, 0, 0, 0, 0, 0, 0, 0, 0, 0, 0, 0, 2, 2, 2, 2, 2, 2, 2, 2, 2
Branch Status: 2
Branch- 0: 2, 2, 2, 2, 2, 2, 2, 2, 2, 2, 2, 2, 2, 2, 2, 2, 2, 2, 2, 2, 2, 2, 2, 0, 2, 2, 2, 2, 2, 2, 2, 2
Branch- 1: 0, 0, 0, 0, 0, 0, 0, 0, 0, 0, 0, 0, 0, 0, 0, 0, 0, 0, 0, 0, 0, 0, 0, 2, 2, 2, 2, 2, 2, 2, 2, 2
GPGPU-Sim PTX: 8200000 instructions simulated : ctaid=(81,1,0) tid=(75,0,0)
GPGPU-Sim uArch: cycles simulated: 30500  inst.: 8168029 (ipc=267.8) sim_rate=140828 (inst/sec) elapsed = 0:0:00:58 / Wed Dec  9 00:46:29 2015
Branch Status: 2
Branch- 0: 2, 2, 2, 2, 2, 2, 2, 2, 2, 2, 2, 2, 2, 2, 2, 2, 2, 2, 2, 2, 2, 2, 2, 0, 2, 2, 2, 2, 2, 2, 2, 2
Branch- 1: 0, 0, 0, 0, 0, 0, 0, 0, 0, 0, 0, 0, 0, 0, 0, 0, 0, 0, 0, 0, 0, 0, 0, 2, 2, 2, 2, 2, 2, 2, 2, 2
Branch Status: 2
Branch- 0: 0, 2, 2, 2, 2, 2, 2, 2, 2, 2, 2, 2, 2, 2, 2, 2, 2, 2, 2, 2, 2, 2, 2, 2, 2, 2, 2, 2, 2, 2, 2, 2
Branch- 1: 2, 0, 0, 0, 0, 0, 0, 0, 0, 0, 0, 0, 0, 0, 0, 0, 0, 0, 0, 0, 0, 0, 0, 0, 0, 0, 0, 0, 0, 0, 0, 0
Branch Status: 2
Branch- 0: 2, 2, 2, 2, 2, 2, 2, 2, 2, 2, 2, 2, 2, 2, 2, 2, 2, 2, 2, 2, 2, 2, 2, 0, 2, 2, 2, 2, 2, 2, 2, 2
Branch- 1: 0, 0, 0, 0, 0, 0, 0, 0, 0, 0, 0, 0, 0, 0, 0, 0, 0, 0, 0, 0, 0, 0, 0, 2, 2, 2, 2, 2, 2, 2, 2, 2
Branch Status: 2
Branch- 0: 0, 2, 2, 2, 2, 2, 2, 2, 2, 2, 2, 2, 2, 2, 2, 2, 2, 2, 2, 2, 2, 2, 2, 2, 2, 2, 2, 2, 2, 2, 2, 2
Branch- 1: 2, 0, 0, 0, 0, 0, 0, 0, 0, 0, 0, 0, 0, 0, 0, 0, 0, 0, 0, 0, 0, 0, 0, 0, 0, 0, 0, 0, 0, 0, 0, 0
Branch Status: 2
Branch- 0: 2, 2, 2, 2, 2, 2, 2, 2, 2, 2, 2, 2, 2, 2, 2, 2, 2, 2, 2, 2, 2, 2, 2, 0, 2, 2, 2, 2, 2, 2, 2, 2
Branch- 1: 0, 0, 0, 0, 0, 0, 0, 0, 0, 0, 0, 0, 0, 0, 0, 0, 0, 0, 0, 0, 0, 0, 0, 2, 2, 2, 2, 2, 2, 2, 2, 2
GPGPU-Sim PTX: 8300000 instructions simulated : ctaid=(79,1,0) tid=(86,0,0)
Branch Status: 2
Branch- 0: 2, 2, 2, 2, 2, 2, 2, 2, 2, 2, 2, 2, 2, 2, 2, 2, 2, 2, 2, 2, 2, 2, 2, 0, 2, 2, 2, 2, 2, 2, 2, 2
Branch- 1: 0, 0, 0, 0, 0, 0, 0, 0, 0, 0, 0, 0, 0, 0, 0, 0, 0, 0, 0, 0, 0, 0, 0, 2, 2, 2, 2, 2, 2, 2, 2, 2
Branch Status: 2
Branch- 0: 2, 2, 2, 2, 2, 2, 2, 2, 2, 2, 2, 2, 2, 2, 2, 2, 2, 2, 2, 2, 2, 2, 2, 0, 2, 2, 2, 2, 2, 2, 2, 2
Branch- 1: 0, 0, 0, 0, 0, 0, 0, 0, 0, 0, 0, 0, 0, 0, 0, 0, 0, 0, 0, 0, 0, 0, 0, 2, 2, 2, 2, 2, 2, 2, 2, 2
Branch Status: 2
Branch- 0: 2, 2, 2, 2, 2, 2, 2, 2, 2, 2, 2, 2, 2, 2, 2, 2, 2, 2, 2, 2, 2, 2, 2, 0, 2, 2, 2, 2, 2, 2, 2, 2
Branch- 1: 0, 0, 0, 0, 0, 0, 0, 0, 0, 0, 0, 0, 0, 0, 0, 0, 0, 0, 0, 0, 0, 0, 0, 2, 2, 2, 2, 2, 2, 2, 2, 2
Branch Status: 2
Branch- 0: 2, 2, 2, 2, 2, 2, 2, 2, 2, 2, 2, 2, 2, 2, 2, 2, 2, 2, 2, 2, 2, 2, 2, 0, 2, 2, 2, 2, 2, 2, 2, 2
Branch- 1: 0, 0, 0, 0, 0, 0, 0, 0, 0, 0, 0, 0, 0, 0, 0, 0, 0, 0, 0, 0, 0, 0, 0, 2, 2, 2, 2, 2, 2, 2, 2, 2
Branch Status: 2
Branch- 0: 2, 2, 2, 2, 2, 2, 2, 2, 2, 2, 2, 2, 2, 2, 2, 2, 2, 2, 2, 2, 2, 2, 2, 0, 2, 2, 2, 2, 2, 2, 2, 2
Branch- 1: 0, 0, 0, 0, 0, 0, 0, 0, 0, 0, 0, 0, 0, 0, 0, 0, 0, 0, 0, 0, 0, 0, 0, 2, 2, 2, 2, 2, 2, 2, 2, 2
Branch Status: 2
Branch- 0: 0, 2, 2, 2, 2, 2, 2, 2, 2, 2, 2, 2, 2, 2, 2, 2, 2, 2, 2, 2, 2, 2, 2, 2, 2, 2, 2, 2, 2, 2, 2, 2
Branch- 1: 2, 0, 0, 0, 0, 0, 0, 0, 0, 0, 0, 0, 0, 0, 0, 0, 0, 0, 0, 0, 0, 0, 0, 0, 0, 0, 0, 0, 0, 0, 0, 0
GPGPU-Sim PTX: 8400000 instructions simulated : ctaid=(58,1,0) tid=(93,0,0)
Branch Status: 2
Branch- 0: 0, 2, 2, 2, 2, 2, 2, 2, 2, 2, 2, 2, 2, 2, 2, 2, 2, 2, 2, 2, 2, 2, 2, 2, 2, 2, 2, 2, 2, 2, 2, 2
Branch- 1: 2, 0, 0, 0, 0, 0, 0, 0, 0, 0, 0, 0, 0, 0, 0, 0, 0, 0, 0, 0, 0, 0, 0, 0, 0, 0, 0, 0, 0, 0, 0, 0
Branch Status: 2
Branch- 0: 0, 2, 2, 2, 2, 2, 2, 2, 2, 2, 2, 2, 2, 2, 2, 2, 2, 2, 2, 2, 2, 2, 2, 2, 2, 2, 2, 2, 2, 2, 2, 2
Branch- 1: 2, 0, 0, 0, 0, 0, 0, 0, 0, 0, 0, 0, 0, 0, 0, 0, 0, 0, 0, 0, 0, 0, 0, 0, 0, 0, 0, 0, 0, 0, 0, 0
Branch Status: 2
Branch- 0: 0, 2, 2, 2, 2, 2, 2, 2, 2, 2, 2, 2, 2, 2, 2, 2, 2, 2, 2, 2, 2, 2, 2, 2, 2, 2, 2, 2, 2, 2, 2, 2
Branch- 1: 2, 0, 0, 0, 0, 0, 0, 0, 0, 0, 0, 0, 0, 0, 0, 0, 0, 0, 0, 0, 0, 0, 0, 0, 0, 0, 0, 0, 0, 0, 0, 0
Branch Status: 2
Branch- 0: 2, 2, 2, 2, 2, 2, 2, 2, 2, 2, 2, 2, 2, 2, 2, 2, 2, 2, 2, 2, 2, 2, 2, 0, 2, 2, 2, 2, 2, 2, 2, 2
Branch- 1: 0, 0, 0, 0, 0, 0, 0, 0, 0, 0, 0, 0, 0, 0, 0, 0, 0, 0, 0, 0, 0, 0, 0, 2, 2, 2, 2, 2, 2, 2, 2, 2
Branch Status: 2
Branch- 0: 2, 2, 2, 2, 2, 2, 2, 2, 2, 2, 2, 2, 2, 2, 2, 2, 2, 2, 2, 2, 2, 2, 2, 0, 2, 2, 2, 2, 2, 2, 2, 2
Branch- 1: 0, 0, 0, 0, 0, 0, 0, 0, 0, 0, 0, 0, 0, 0, 0, 0, 0, 0, 0, 0, 0, 0, 0, 2, 2, 2, 2, 2, 2, 2, 2, 2
GPGPU-Sim PTX: 8500000 instructions simulated : ctaid=(23,1,0) tid=(100,0,0)
Branch Status: 2
Branch- 0: 2, 2, 2, 2, 2, 2, 2, 2, 2, 2, 2, 2, 2, 2, 2, 2, 2, 2, 2, 2, 2, 2, 2, 0, 2, 2, 2, 2, 2, 2, 2, 2
Branch- 1: 0, 0, 0, 0, 0, 0, 0, 0, 0, 0, 0, 0, 0, 0, 0, 0, 0, 0, 0, 0, 0, 0, 0, 2, 2, 2, 2, 2, 2, 2, 2, 2
Branch Status: 2
Branch- 0: 0, 2, 2, 2, 2, 2, 2, 2, 2, 2, 2, 2, 2, 2, 2, 2, 2, 2, 2, 2, 2, 2, 2, 2, 2, 2, 2, 2, 2, 2, 2, 2
Branch- 1: 2, 0, 0, 0, 0, 0, 0, 0, 0, 0, 0, 0, 0, 0, 0, 0, 0, 0, 0, 0, 0, 0, 0, 0, 0, 0, 0, 0, 0, 0, 0, 0
Branch Status: 2
Branch- 0: 0, 2, 2, 2, 2, 2, 2, 2, 2, 2, 2, 2, 2, 2, 2, 2, 2, 2, 2, 2, 2, 2, 2, 2, 2, 2, 2, 2, 2, 2, 2, 2
Branch- 1: 2, 0, 0, 0, 0, 0, 0, 0, 0, 0, 0, 0, 0, 0, 0, 0, 0, 0, 0, 0, 0, 0, 0, 0, 0, 0, 0, 0, 0, 0, 0, 0
Branch Status: 2
Branch- 0: 0, 2, 2, 2, 2, 2, 2, 2, 2, 2, 2, 2, 2, 2, 2, 2, 2, 2, 2, 2, 2, 2, 2, 2, 2, 2, 2, 2, 2, 2, 2, 2
Branch- 1: 2, 0, 0, 0, 0, 0, 0, 0, 0, 0, 0, 0, 0, 0, 0, 0, 0, 0, 0, 0, 0, 0, 0, 0, 0, 0, 0, 0, 0, 0, 0, 0
Branch Status: 2
Branch- 0: 2, 2, 2, 2, 2, 2, 2, 2, 2, 2, 2, 2, 2, 2, 2, 2, 2, 2, 2, 2, 2, 2, 2, 0, 2, 2, 2, 2, 2, 2, 2, 2
Branch- 1: 0, 0, 0, 0, 0, 0, 0, 0, 0, 0, 0, 0, 0, 0, 0, 0, 0, 0, 0, 0, 0, 0, 0, 2, 2, 2, 2, 2, 2, 2, 2, 2
GPGPU-Sim PTX: 8600000 instructions simulated : ctaid=(59,1,0) tid=(30,0,0)
Branch Status: 2
Branch- 0: 2, 2, 2, 2, 2, 2, 2, 2, 2, 2, 2, 2, 2, 2, 2, 2, 2, 2, 2, 2, 2, 2, 2, 0, 2, 2, 2, 2, 2, 2, 2, 2
Branch- 1: 0, 0, 0, 0, 0, 0, 0, 0, 0, 0, 0, 0, 0, 0, 0, 0, 0, 0, 0, 0, 0, 0, 0, 2, 2, 2, 2, 2, 2, 2, 2, 2
Branch Status: 2
Branch- 0: 2, 2, 2, 2, 2, 2, 2, 2, 2, 2, 2, 2, 2, 2, 2, 2, 2, 2, 2, 2, 2, 2, 2, 0, 2, 2, 2, 2, 2, 2, 2, 2
Branch- 1: 0, 0, 0, 0, 0, 0, 0, 0, 0, 0, 0, 0, 0, 0, 0, 0, 0, 0, 0, 0, 0, 0, 0, 2, 2, 2, 2, 2, 2, 2, 2, 2
Branch Status: 2
Branch- 0: 0, 2, 2, 2, 2, 2, 2, 2, 2, 2, 2, 2, 2, 2, 2, 2, 2, 2, 2, 2, 2, 2, 2, 2, 2, 2, 2, 2, 2, 2, 2, 2
Branch- 1: 2, 0, 0, 0, 0, 0, 0, 0, 0, 0, 0, 0, 0, 0, 0, 0, 0, 0, 0, 0, 0, 0, 0, 0, 0, 0, 0, 0, 0, 0, 0, 0
Branch Status: 2
Branch- 0: 2, 2, 2, 2, 2, 2, 2, 2, 2, 2, 2, 2, 2, 2, 2, 2, 2, 2, 2, 2, 2, 2, 2, 0, 2, 2, 2, 2, 2, 2, 2, 2
Branch- 1: 0, 0, 0, 0, 0, 0, 0, 0, 0, 0, 0, 0, 0, 0, 0, 0, 0, 0, 0, 0, 0, 0, 0, 2, 2, 2, 2, 2, 2, 2, 2, 2
Branch Status: 2
Branch- 0: 0, 2, 2, 2, 2, 2, 2, 2, 2, 2, 2, 2, 2, 2, 2, 2, 2, 2, 2, 2, 2, 2, 2, 2, 2, 2, 2, 2, 2, 2, 2, 2
Branch- 1: 2, 0, 0, 0, 0, 0, 0, 0, 0, 0, 0, 0, 0, 0, 0, 0, 0, 0, 0, 0, 0, 0, 0, 0, 0, 0, 0, 0, 0, 0, 0, 0
GPGPU-Sim PTX: 8700000 instructions simulated : ctaid=(25,1,0) tid=(30,0,0)
Branch Status: 2
Branch- 0: 0, 2, 2, 2, 2, 2, 2, 2, 2, 2, 2, 2, 2, 2, 2, 2, 2, 2, 2, 2, 2, 2, 2, 2, 2, 2, 2, 2, 2, 2, 2, 2
Branch- 1: 2, 0, 0, 0, 0, 0, 0, 0, 0, 0, 0, 0, 0, 0, 0, 0, 0, 0, 0, 0, 0, 0, 0, 0, 0, 0, 0, 0, 0, 0, 0, 0
GPGPU-Sim uArch: cycles simulated: 31500  inst.: 8681876 (ipc=275.6) sim_rate=147150 (inst/sec) elapsed = 0:0:00:59 / Wed Dec  9 00:46:30 2015
Branch Status: 2
Branch- 0: 2, 2, 2, 2, 2, 2, 2, 2, 2, 2, 2, 2, 2, 2, 2, 2, 2, 2, 2, 2, 2, 2, 2, 0, 2, 2, 2, 2, 2, 2, 2, 2
Branch- 1: 0, 0, 0, 0, 0, 0, 0, 0, 0, 0, 0, 0, 0, 0, 0, 0, 0, 0, 0, 0, 0, 0, 0, 2, 2, 2, 2, 2, 2, 2, 2, 2
Branch Status: 2
Branch- 0: 2, 2, 2, 2, 2, 2, 2, 2, 2, 2, 2, 2, 2, 2, 2, 2, 2, 2, 2, 2, 2, 2, 2, 0, 2, 2, 2, 2, 2, 2, 2, 2
Branch- 1: 0, 0, 0, 0, 0, 0, 0, 0, 0, 0, 0, 0, 0, 0, 0, 0, 0, 0, 0, 0, 0, 0, 0, 2, 2, 2, 2, 2, 2, 2, 2, 2
Branch Status: 2
Branch- 0: 2, 2, 2, 2, 2, 2, 2, 2, 2, 2, 2, 2, 2, 2, 2, 2, 2, 2, 2, 2, 2, 2, 2, 0, 2, 2, 2, 2, 2, 2, 2, 2
Branch- 1: 0, 0, 0, 0, 0, 0, 0, 0, 0, 0, 0, 0, 0, 0, 0, 0, 0, 0, 0, 0, 0, 0, 0, 2, 2, 2, 2, 2, 2, 2, 2, 2
Branch Status: 2
Branch- 0: 2, 2, 2, 2, 2, 2, 2, 2, 2, 2, 2, 2, 2, 2, 2, 2, 2, 2, 2, 2, 2, 2, 2, 0, 2, 2, 2, 2, 2, 2, 2, 2
Branch- 1: 0, 0, 0, 0, 0, 0, 0, 0, 0, 0, 0, 0, 0, 0, 0, 0, 0, 0, 0, 0, 0, 0, 0, 2, 2, 2, 2, 2, 2, 2, 2, 2
Branch Status: 2
Branch- 0: 2, 2, 2, 2, 2, 2, 2, 2, 2, 2, 2, 2, 2, 2, 2, 2, 2, 2, 2, 2, 2, 2, 2, 0, 2, 2, 2, 2, 2, 2, 2, 2
Branch- 1: 0, 0, 0, 0, 0, 0, 0, 0, 0, 0, 0, 0, 0, 0, 0, 0, 0, 0, 0, 0, 0, 0, 0, 2, 2, 2, 2, 2, 2, 2, 2, 2
Branch Status: 2
Branch- 0: 2, 2, 2, 2, 2, 2, 2, 2, 2, 2, 2, 2, 2, 2, 2, 2, 2, 2, 2, 2, 2, 2, 2, 0, 2, 2, 2, 2, 2, 2, 2, 2
Branch- 1: 0, 0, 0, 0, 0, 0, 0, 0, 0, 0, 0, 0, 0, 0, 0, 0, 0, 0, 0, 0, 0, 0, 0, 2, 2, 2, 2, 2, 2, 2, 2, 2
Branch Status: 2
Branch- 0: 2, 2, 2, 2, 2, 2, 2, 2, 2, 2, 2, 2, 2, 2, 2, 2, 2, 2, 2, 2, 2, 2, 2, 0, 2, 2, 2, 2, 2, 2, 2, 2
Branch- 1: 0, 0, 0, 0, 0, 0, 0, 0, 0, 0, 0, 0, 0, 0, 0, 0, 0, 0, 0, 0, 0, 0, 0, 2, 2, 2, 2, 2, 2, 2, 2, 2
Branch Status: 2
[...]
GPGPU-Sim uArch: Shader 6 finished CTA #4 (1055651,0), 6 CTAs running
GPGPU-Sim uArch: core:  6, cta: 4 initialized @(1055652,0)
Branch Status: 2
Branch- 0: 2, 2, 2, 2, 2, 2, 2, 2, 2, 2, 2, 2, 2, 2, 2, 2, 2, 2, 2, 2, 2, 2, 2, 0, 2, 2, 2, 2, 2, 2, 2, 2
Branch- 1: 0, 0, 0, 0, 0, 0, 0, 0, 0, 0, 0, 0, 0, 0, 0, 0, 0, 0, 0, 0, 0, 0, 0, 2, 2, 2, 2, 2, 2, 2, 2, 2
GPGPU-Sim uArch: Shader 9 finished CTA #3 (1055713,0), 6 CTAs running
GPGPU-Sim uArch: core:  9, cta: 3 initialized @(1055714,0)
GPGPU-Sim uArch: Shader 6 finished CTA #0 (1055789,0), 6 CTAs running
GPGPU-Sim uArch: core:  6, cta: 0 initialized @(1055790,0)
GPGPU-Sim uArch: Shader 9 finished CTA #1 (1055808,0), 6 CTAs running
GPGPU-Sim uArch: core:  9, cta: 1 initialized @(1055809,0)
GPGPU-Sim PTX: 400600000 instructions simulated : ctaid=(92,41,0) tid=(39,0,0)
GPGPU-Sim uArch: Shader 9 finished CTA #6 (1055847,0), 6 CTAs running
GPGPU-Sim uArch: core:  9, cta: 6 initialized @(1055848,0)
GPGPU-Sim uArch: Shader 0 finished CTA #0 (1055944,0), 6 CTAs running
GPGPU-Sim uArch: core:  0, cta: 0 initialized @(1055945,0)
GPGPU-Sim uArch: Shader 0 finished CTA #1 (1055957,0), 6 CTAs running
GPGPU-Sim uArch: core:  0, cta: 1 initialized @(1055958,0)
GPGPU-Sim uArch: Shader 14 finished CTA #2 (1055982,0), 6 CTAs running
GPGPU-Sim uArch: core: 14, cta: 2 initialized @(1055983,0)
GPGPU-Sim uArch: cycles simulated: 1056000  inst.: 400581207 (ipc=379.3) sim_rate=241750 (inst/sec) elapsed = 0:0:27:37 / Wed Dec  9 01:13:08 2015
GPGPU-Sim PTX: 400700000 instructions simulated : ctaid=(101,41,0) tid=(55,0,0)
GPGPU-Sim uArch: Shader 14 finished CTA #4 (1056074,0), 6 CTAs running
GPGPU-Sim uArch: core: 14, cta: 4 initialized @(1056075,0)
GPGPU-Sim uArch: Shader 0 finished CTA #6 (1056154,0), 6 CTAs running
GPGPU-Sim uArch: core:  0, cta: 6 initialized @(1056155,0)
GPGPU-Sim uArch: Shader 0 finished CTA #4 (1056203,0), 6 CTAs running
GPGPU-Sim uArch: core:  0, cta: 4 initialized @(1056204,0)
Branch Status: 2
Branch- 0: 0, 2, 2, 2, 2, 2, 2, 2, 2, 2, 2, 2, 2, 2, 2, 2, 2, 2, 2, 2, 2, 2, 2, 2, 2, 2, 2, 2, 2, 2, 2, 2
Branch- 1: 2, 0, 0, 0, 0, 0, 0, 0, 0, 0, 0, 0, 0, 0, 0, 0, 0, 0, 0, 0, 0, 0, 0, 0, 0, 0, 0, 0, 0, 0, 0, 0
GPGPU-Sim PTX: 400800000 instructions simulated : ctaid=(94,41,0) tid=(27,0,0)
GPGPU-Sim uArch: Shader 12 finished CTA #3 (1056289,0), 6 CTAs running
GPGPU-Sim uArch: core: 12, cta: 3 initialized @(1056290,0)
GPGPU-Sim PTX: 400900000 instructions simulated : ctaid=(1,42,0) tid=(10,0,0)
GPGPU-Sim uArch: cycles simulated: 1056500  inst.: 400817268 (ipc=379.4) sim_rate=241747 (inst/sec) elapsed = 0:0:27:38 / Wed Dec  9 01:13:09 2015
GPGPU-Sim PTX: 401000000 instructions simulated : ctaid=(107,41,0) tid=(34,0,0)
GPGPU-Sim uArch: Shader 7 finished CTA #2 (1056766,0), 6 CTAs running
GPGPU-Sim uArch: core:  7, cta: 2 initialized @(1056767,0)
GPGPU-Sim PTX: 401100000 instructions simulated : ctaid=(63,41,0) tid=(113,0,0)
GPGPU-Sim uArch: cycles simulated: 1057000  inst.: 401027599 (ipc=379.4) sim_rate=241728 (inst/sec) elapsed = 0:0:27:39 / Wed Dec  9 01:13:10 2015
Branch Status: 2
Branch- 0: 0, 2, 2, 2, 2, 2, 2, 2, 2, 2, 2, 2, 2, 2, 2, 2, 2, 2, 2, 2, 2, 2, 2, 2, 2, 2, 2, 2, 2, 2, 2, 2
Branch- 1: 2, 0, 0, 0, 0, 0, 0, 0, 0, 0, 0, 0, 0, 0, 0, 0, 0, 0, 0, 0, 0, 0, 0, 0, 0, 0, 0, 0, 0, 0, 0, 0
Branch Status: 2
Branch- 0: 0, 2, 2, 2, 2, 2, 2, 2, 2, 2, 2, 2, 2, 2, 2, 2, 2, 2, 2, 2, 2, 2, 2, 2, 2, 2, 2, 2, 2, 2, 2, 2
Branch- 1: 2, 0, 0, 0, 0, 0, 0, 0, 0, 0, 0, 0, 0, 0, 0, 0, 0, 0, 0, 0, 0, 0, 0, 0, 0, 0, 0, 0, 0, 0, 0, 0
GPGPU-Sim uArch: Shader 7 finished CTA #4 (1057041,0), 6 CTAs running
GPGPU-Sim uArch: core:  7, cta: 4 initialized @(1057042,0)
Branch Status: 2
Branch- 0: 0, 2, 2, 2, 2, 2, 2, 2, 2, 2, 2, 2, 2, 2, 2, 2, 2, 2, 2, 2, 2, 2, 2, 2, 2, 2, 2, 2, 2, 2, 2, 2
Branch- 1: 2, 0, 0, 0, 0, 0, 0, 0, 0, 0, 0, 0, 0, 0, 0, 0, 0, 0, 0, 0, 0, 0, 0, 0, 0, 0, 0, 0, 0, 0, 0, 0
GPGPU-Sim uArch: Shader 7 finished CTA #0 (1057121,0), 6 CTAs running
GPGPU-Sim uArch: core:  7, cta: 0 initialized @(1057122,0)
GPGPU-Sim PTX: 401200000 instructions simulated : ctaid=(74,41,0) tid=(111,0,0)
Branch Status: 2
Branch- 0: 0, 2, 2, 2, 2, 2, 2, 2, 2, 2, 2, 2, 2, 2, 2, 2, 2, 2, 2, 2, 2, 2, 2, 2, 2, 2, 2, 2, 2, 2, 2, 2
Branch- 1: 2, 0, 0, 0, 0, 0, 0, 0, 0, 0, 0, 0, 0, 0, 0, 0, 0, 0, 0, 0, 0, 0, 0, 0, 0, 0, 0, 0, 0, 0, 0, 0
Branch Status: 2
Branch- 0: 0, 2, 2, 2, 2, 2, 2, 2, 2, 2, 2, 2, 2, 2, 2, 2, 2, 2, 2, 2, 2, 2, 2, 2, 2, 2, 2, 2, 2, 2, 2, 2
Branch- 1: 2, 0, 0, 0, 0, 0, 0, 0, 0, 0, 0, 0, 0, 0, 0, 0, 0, 0, 0, 0, 0, 0, 0, 0, 0, 0, 0, 0, 0, 0, 0, 0
Branch Status: 2
Branch- 0: 2, 2, 2, 2, 2, 2, 2, 2, 2, 2, 2, 2, 2, 2, 2, 2, 2, 2, 2, 2, 2, 2, 2, 0, 2, 2, 2, 2, 2, 2, 2, 2
Branch- 1: 0, 0, 0, 0, 0, 0, 0, 0, 0, 0, 0, 0, 0, 0, 0, 0, 0, 0, 0, 0, 0, 0, 0, 2, 2, 2, 2, 2, 2, 2, 2, 2
GPGPU-Sim uArch: Shader 7 finished CTA #6 (1057321,0), 6 CTAs running
GPGPU-Sim uArch: core:  7, cta: 6 initialized @(1057322,0)
Branch Status: 2
Branch- 0: 2, 2, 2, 2, 2, 2, 2, 2, 2, 2, 2, 2, 2, 2, 2, 2, 2, 2, 2, 2, 2, 2, 2, 0, 2, 2, 2, 2, 2, 2, 2, 2
Branch- 1: 0, 0, 0, 0, 0, 0, 0, 0, 0, 0, 0, 0, 0, 0, 0, 0, 0, 0, 0, 0, 0, 0, 0, 2, 2, 2, 2, 2, 2, 2, 2, 2
GPGPU-Sim PTX: 401300000 instructions simulated : ctaid=(14,42,0) tid=(46,0,0)
Branch Status: 2
Branch- 0: 2, 2, 2, 2, 2, 2, 2, 2, 2, 2, 2, 2, 2, 2, 2, 2, 2, 2, 2, 2, 2, 2, 2, 0, 2, 2, 2, 2, 2, 2, 2, 2
Branch- 1: 0, 0, 0, 0, 0, 0, 0, 0, 0, 0, 0, 0, 0, 0, 0, 0, 0, 0, 0, 0, 0, 0, 0, 2, 2, 2, 2, 2, 2, 2, 2, 2
GPGPU-Sim uArch: cycles simulated: 1057500  inst.: 401204261 (ipc=379.4) sim_rate=241689 (inst/sec) elapsed = 0:0:27:40 / Wed Dec  9 01:13:11 2015
GPGPU-Sim uArch: Shader 11 finished CTA #5 (1057543,0), 6 CTAs running
GPGPU-Sim uArch: core: 11, cta: 5 initialized @(1057544,0)
GPGPU-Sim uArch: Shader 11 finished CTA #3 (1057620,0), 6 CTAs running
GPGPU-Sim uArch: core: 11, cta: 3 initialized @(1057621,0)
Branch Status: 2
Branch- 0: 2, 2, 2, 2, 2, 2, 2, 2, 2, 2, 2, 2, 2, 2, 2, 2, 2, 2, 2, 2, 2, 2, 2, 0, 2, 2, 2, 2, 2, 2, 2, 2
Branch- 1: 0, 0, 0, 0, 0, 0, 0, 0, 0, 0, 0, 0, 0, 0, 0, 0, 0, 0, 0, 0, 0, 0, 0, 2, 2, 2, 2, 2, 2, 2, 2, 2
Branch Status: 2
Branch- 0: 2, 2, 2, 2, 2, 2, 2, 2, 2, 2, 2, 2, 2, 2, 2, 2, 2, 2, 2, 2, 2, 2, 2, 0, 2, 2, 2, 2, 2, 2, 2, 2
Branch- 1: 0, 0, 0, 0, 0, 0, 0, 0, 0, 0, 0, 0, 0, 0, 0, 0, 0, 0, 0, 0, 0, 0, 0, 2, 2, 2, 2, 2, 2, 2, 2, 2
GPGPU-Sim uArch: Shader 11 finished CTA #2 (1057726,0), 6 CTAs running
GPGPU-Sim uArch: core: 11, cta: 2 initialized @(1057727,0)
GPGPU-Sim PTX: 401400000 instructions simulated : ctaid=(112,41,0) tid=(114,0,0)
GPGPU-Sim PTX: 401500000 instructions simulated : ctaid=(21,42,0) tid=(70,0,0)
GPGPU-Sim uArch: cycles simulated: 1058000  inst.: 401391594 (ipc=379.4) sim_rate=241656 (inst/sec) elapsed = 0:0:27:41 / Wed Dec  9 01:13:12 2015
Branch Status: 2
Branch- 0: 0, 2, 2, 2, 2, 2, 2, 2, 2, 2, 2, 2, 2, 2, 2, 2, 2, 2, 2, 2, 2, 2, 2, 2, 2, 2, 2, 2, 2, 2, 2, 2
Branch- 1: 2, 0, 0, 0, 0, 0, 0, 0, 0, 0, 0, 0, 0, 0, 0, 0, 0, 0, 0, 0, 0, 0, 0, 0, 0, 0, 0, 0, 0, 0, 0, 0
Branch Status: 2
Branch- 0: 0, 2, 2, 2, 2, 2, 2, 2, 2, 2, 2, 2, 2, 2, 2, 2, 2, 2, 2, 2, 2, 2, 2, 2, 2, 2, 2, 2, 2, 2, 2, 2
Branch- 1: 2, 0, 0, 0, 0, 0, 0, 0, 0, 0, 0, 0, 0, 0, 0, 0, 0, 0, 0, 0, 0, 0, 0, 0, 0, 0, 0, 0, 0, 0, 0, 0
Branch Status: 2
Branch- 0: 0, 2, 2, 2, 2, 2, 2, 2, 2, 2, 2, 2, 2, 2, 2, 2, 2, 2, 2, 2, 2, 2, 2, 2, 2, 2, 2, 2, 2, 2, 2, 2
Branch- 1: 2, 0, 0, 0, 0, 0, 0, 0, 0, 0, 0, 0, 0, 0, 0, 0, 0, 0, 0, 0, 0, 0, 0, 0, 0, 0, 0, 0, 0, 0, 0, 0
Branch Status: 2
Branch- 0: 0, 2, 2, 2, 2, 2, 2, 2, 2, 2, 2, 2, 2, 2, 2, 2, 2, 2, 2, 2, 2, 2, 2, 2, 2, 2, 2, 2, 2, 2, 2, 2
Branch- 1: 2, 0, 0, 0, 0, 0, 0, 0, 0, 0, 0, 0, 0, 0, 0, 0, 0, 0, 0, 0, 0, 0, 0, 0, 0, 0, 0, 0, 0, 0, 0, 0
GPGPU-Sim PTX: 401600000 instructions simulated : ctaid=(91,41,0) tid=(108,0,0)
Branch Status: 2
Branch- 0: 2, 2, 2, 2, 2, 2, 2, 2, 2, 2, 2, 2, 2, 2, 2, 2, 2, 2, 2, 2, 2, 2, 2, 0, 2, 2, 2, 2, 2, 2, 2, 2
Branch- 1: 0, 0, 0, 0, 0, 0, 0, 0, 0, 0, 0, 0, 0, 0, 0, 0, 0, 0, 0, 0, 0, 0, 0, 2, 2, 2, 2, 2, 2, 2, 2, 2
Branch Status: 2
Branch- 0: 0, 2, 2, 2, 2, 2, 2, 2, 2, 2, 2, 2, 2, 2, 2, 2, 2, 2, 2, 2, 2, 2, 2, 2, 2, 2, 2, 2, 2, 2, 2, 2
Branch- 1: 2, 0, 0, 0, 0, 0, 0, 0, 0, 0, 0, 0, 0, 0, 0, 0, 0, 0, 0, 0, 0, 0, 0, 0, 0, 0, 0, 0, 0, 0, 0, 0
GPGPU-Sim uArch: Shader 8 finished CTA #2 (1058375,0), 6 CTAs running
GPGPU-Sim uArch: core:  8, cta: 2 initialized @(1058376,0)
Branch Status: 2
Branch- 0: 0, 2, 2, 2, 2, 2, 2, 2, 2, 2, 2, 2, 2, 2, 2, 2, 2, 2, 2, 2, 2, 2, 2, 2, 2, 2, 2, 2, 2, 2, 2, 2
Branch- 1: 2, 0, 0, 0, 0, 0, 0, 0, 0, 0, 0, 0, 0, 0, 0, 0, 0, 0, 0, 0, 0, 0, 0, 0, 0, 0, 0, 0, 0, 0, 0, 0
Branch Status: 2
Branch- 0: 0, 2, 2, 2, 2, 2, 2, 2, 2, 2, 2, 2, 2, 2, 2, 2, 2, 2, 2, 2, 2, 2, 2, 2, 2, 2, 2, 2, 2, 2, 2, 2
Branch- 1: 2, 0, 0, 0, 0, 0, 0, 0, 0, 0, 0, 0, 0, 0, 0, 0, 0, 0, 0, 0, 0, 0, 0, 0, 0, 0, 0, 0, 0, 0, 0, 0
Branch Status: 2
Branch- 0: 0, 2, 2, 2, 2, 2, 2, 2, 2, 2, 2, 2, 2, 2, 2, 2, 2, 2, 2, 2, 2, 2, 2, 2, 2, 2, 2, 2, 2, 2, 2, 2
Branch- 1: 2, 0, 0, 0, 0, 0, 0, 0, 0, 0, 0, 0, 0, 0, 0, 0, 0, 0, 0, 0, 0, 0, 0, 0, 0, 0, 0, 0, 0, 0, 0, 0
Branch Status: 2
Branch- 0: 2, 2, 2, 2, 2, 2, 2, 2, 2, 2, 2, 2, 2, 2, 2, 2, 2, 2, 2, 2, 2, 2, 2, 0, 2, 2, 2, 2, 2, 2, 2, 2
Branch- 1: 0, 0, 0, 0, 0, 0, 0, 0, 0, 0, 0, 0, 0, 0, 0, 0, 0, 0, 0, 0, 0, 0, 0, 2, 2, 2, 2, 2, 2, 2, 2, 2
Branch Status: 2
Branch- 0: 2, 2, 2, 2, 2, 2, 2, 2, 2, 2, 2, 2, 2, 2, 2, 2, 2, 2, 2, 2, 2, 2, 2, 0, 2, 2, 2, 2, 2, 2, 2, 2
Branch- 1: 0, 0, 0, 0, 0, 0, 0, 0, 0, 0, 0, 0, 0, 0, 0, 0, 0, 0, 0, 0, 0, 0, 0, 2, 2, 2, 2, 2, 2, 2, 2, 2
GPGPU-Sim uArch: Shader 1 finished CTA #1 (1058443,0), 6 CTAs running
GPGPU-Sim uArch: core:  1, cta: 1 initialized @(1058444,0)
GPGPU-Sim PTX: 401700000 instructions simulated : ctaid=(109,41,0) tid=(64,0,0)
Branch Status: 2
Branch- 0: 0, 2, 2, 2, 2, 2, 2, 2, 2, 2, 2, 2, 2, 2, 2, 2, 2, 2, 2, 2, 2, 2, 2, 2, 2, 2, 2, 2, 2, 2, 2, 2
Branch- 1: 2, 0, 0, 0, 0, 0, 0, 0, 0, 0, 0, 0, 0, 0, 0, 0, 0, 0, 0, 0, 0, 0, 0, 0, 0, 0, 0, 0, 0, 0, 0, 0
Branch Status: 2
Branch- 0: 2, 2, 2, 2, 2, 2, 2, 2, 2, 2, 2, 2, 2, 2, 2, 2, 2, 2, 2, 2, 2, 2, 2, 0, 2, 2, 2, 2, 2, 2, 2, 2
Branch- 1: 0, 0, 0, 0, 0, 0, 0, 0, 0, 0, 0, 0, 0, 0, 0, 0, 0, 0, 0, 0, 0, 0, 0, 2, 2, 2, 2, 2, 2, 2, 2, 2
GPGPU-Sim uArch: Shader 13 finished CTA #4 (1058593,0), 6 CTAs running
GPGPU-Sim uArch: core: 13, cta: 4 initialized @(1058594,0)
Branch Status: 2
Branch- 0: 2, 2, 2, 2, 2, 2, 2, 2, 2, 2, 2, 2, 2, 2, 2, 2, 2, 2, 2, 2, 2, 2, 2, 0, 2, 2, 2, 2, 2, 2, 2, 2
Branch- 1: 0, 0, 0, 0, 0, 0, 0, 0, 0, 0, 0, 0, 0, 0, 0, 0, 0, 0, 0, 0, 0, 0, 0, 2, 2, 2, 2, 2, 2, 2, 2, 2
GPGPU-Sim uArch: Shader 1 finished CTA #2 (1058645,0), 6 CTAs running
GPGPU-Sim uArch: core:  1, cta: 2 initialized @(1058646,0)
GPGPU-Sim uArch: Shader 13 finished CTA #5 (1058676,0), 6 CTAs running
GPGPU-Sim uArch: core: 13, cta: 5 initialized @(1058677,0)
Branch Status: 2
Branch- 0: 2, 2, 2, 2, 2, 2, 2, 2, 2, 2, 2, 2, 2, 2, 2, 2, 2, 2, 2, 2, 2, 2, 2, 0, 2, 2, 2, 2, 2, 2, 2, 2
Branch- 1: 0, 0, 0, 0, 0, 0, 0, 0, 0, 0, 0, 0, 0, 0, 0, 0, 0, 0, 0, 0, 0, 0, 0, 2, 2, 2, 2, 2, 2, 2, 2, 2
GPGPU-Sim uArch: Shader 13 finished CTA #0 (1058684,0), 6 CTAs running
GPGPU-Sim uArch: core: 13, cta: 0 initialized @(1058685,0)
GPGPU-Sim uArch: Shader 1 finished CTA #4 (1058735,0), 6 CTAs running
GPGPU-Sim uArch: core:  1, cta: 4 initialized @(1058736,0)
GPGPU-Sim PTX: 401800000 instructions simulated : ctaid=(14,42,0) tid=(111,0,0)
Branch Status: 2
Branch- 0: 2, 2, 2, 2, 2, 2, 2, 2, 2, 2, 2, 2, 2, 2, 2, 2, 2, 2, 2, 2, 2, 2, 2, 0, 2, 2, 2, 2, 2, 2, 2, 2
Branch- 1: 0, 0, 0, 0, 0, 0, 0, 0, 0, 0, 0, 0, 0, 0, 0, 0, 0, 0, 0, 0, 0, 0, 0, 2, 2, 2, 2, 2, 2, 2, 2, 2
Branch Status: 2
Branch- 0: 0, 2, 2, 2, 2, 2, 2, 2, 2, 2, 2, 2, 2, 2, 2, 2, 2, 2, 2, 2, 2, 2, 2, 2, 2, 2, 2, 2, 2, 2, 2, 2
Branch- 1: 2, 0, 0, 0, 0, 0, 0, 0, 0, 0, 0, 0, 0, 0, 0, 0, 0, 0, 0, 0, 0, 0, 0, 0, 0, 0, 0, 0, 0, 0, 0, 0
GPGPU-Sim uArch: cycles simulated: 1059000  inst.: 401768645 (ipc=379.4) sim_rate=241738 (inst/sec) elapsed = 0:0:27:42 / Wed Dec  9 01:13:13 2015
Branch Status: 2
Branch- 0: 2, 2, 2, 2, 2, 2, 2, 2, 2, 2, 2, 2, 2, 2, 2, 2, 2, 2, 2, 2, 2, 2, 2, 0, 2, 2, 2, 2, 2, 2, 2, 2
Branch- 1: 0, 0, 0, 0, 0, 0, 0, 0, 0, 0, 0, 0, 0, 0, 0, 0, 0, 0, 0, 0, 0, 0, 0, 2, 2, 2, 2, 2, 2, 2, 2, 2
Branch Status: 2
Branch- 0: 2, 2, 2, 2, 2, 2, 2, 2, 2, 2, 2, 2, 2, 2, 2, 2, 2, 2, 2, 2, 2, 2, 2, 0, 2, 2, 2, 2, 2, 2, 2, 2
Branch- 1: 0, 0, 0, 0, 0, 0, 0, 0, 0, 0, 0, 0, 0, 0, 0, 0, 0, 0, 0, 0, 0, 0, 0, 2, 2, 2, 2, 2, 2, 2, 2, 2
GPGPU-Sim PTX: 401900000 instructions simulated : ctaid=(83,41,0) tid=(54,0,0)
Branch Status: 2
Branch- 0: 2, 2, 2, 2, 2, 2, 2, 2, 2, 2, 2, 2, 2, 2, 2, 2, 2, 2, 2, 2, 2, 2, 2, 0, 2, 2, 2, 2, 2, 2, 2, 2
Branch- 1: 0, 0, 0, 0, 0, 0, 0, 0, 0, 0, 0, 0, 0, 0, 0, 0, 0, 0, 0, 0, 0, 0, 0, 2, 2, 2, 2, 2, 2, 2, 2, 2
Branch Status: 2
Branch- 0: 0, 2, 2, 2, 2, 2, 2, 2, 2, 2, 2, 2, 2, 2, 2, 2, 2, 2, 2, 2, 2, 2, 2, 2, 2, 2, 2, 2, 2, 2, 2, 2
Branch- 1: 2, 0, 0, 0, 0, 0, 0, 0, 0, 0, 0, 0, 0, 0, 0, 0, 0, 0, 0, 0, 0, 0, 0, 0, 0, 0, 0, 0, 0, 0, 0, 0
Branch Status: 2
Branch- 0: 2, 2, 2, 2, 2, 0, 0, 0, 0, 0, 0, 0, 0, 0, 0, 0, 0, 0, 0, 0, 0, 0, 0, 0, 0, 0, 0, 0, 2, 2, 2, 2
Branch- 1: 0, 0, 0, 0, 0, 2, 2, 2, 2, 2, 2, 2, 2, 2, 2, 2, 2, 2, 2, 2, 2, 2, 2, 2, 2, 2, 2, 2, 0, 0, 0, 0
Branch Status: 2
Branch- 0: 0, 2, 2, 2, 2, 2, 2, 2, 2, 2, 2, 2, 2, 2, 2, 2, 2, 2, 2, 2, 2, 2, 2, 2, 2, 2, 2, 2, 2, 2, 2, 2
Branch- 1: 2, 0, 0, 0, 0, 0, 0, 0, 0, 0, 0, 0, 0, 0, 0, 0, 0, 0, 0, 0, 0, 0, 0, 0, 0, 0, 0, 0, 0, 0, 0, 0
Branch Status: 2
Branch- 0: 2, 2, 2, 2, 2, 2, 2, 2, 0, 0, 0, 0, 0, 0, 0, 0, 0, 0, 0, 0, 0, 0, 0, 0, 0, 2, 2, 2, 2, 2, 2, 2
Branch- 1: 0, 0, 0, 0, 0, 0, 0, 0, 2, 2, 2, 2, 2, 2, 2, 2, 2, 2, 2, 2, 2, 2, 2, 2, 2, 0, 0, 0, 0, 0, 0, 0
GPGPU-Sim PTX: 402000000 instructions simulated : ctaid=(26,42,0) tid=(24,0,0)
Branch Status: 2
Branch- 0: 0, 2, 2, 2, 2, 2, 2, 2, 2, 2, 2, 2, 2, 2, 2, 2, 2, 2, 2, 2, 2, 2, 2, 2, 2, 2, 2, 2, 2, 2, 2, 2
Branch- 1: 2, 0, 0, 0, 0, 0, 0, 0, 0, 0, 0, 0, 0, 0, 0, 0, 0, 0, 0, 0, 0, 0, 0, 0, 0, 0, 0, 0, 0, 0, 0, 0
Branch Status: 2
Branch- 0: 0, 2, 2, 2, 2, 2, 2, 2, 2, 2, 2, 2, 2, 2, 2, 2, 2, 2, 2, 2, 2, 2, 2, 2, 2, 2, 2, 2, 2, 2, 2, 2
Branch- 1: 2, 0, 0, 0, 0, 0, 0, 0, 0, 0, 0, 0, 0, 0, 0, 0, 0, 0, 0, 0, 0, 0, 0, 0, 0, 0, 0, 0, 0, 0, 0, 0
Branch Status: 2
Branch- 0: 0, 2, 2, 2, 2, 2, 2, 2, 2, 2, 2, 2, 2, 2, 2, 2, 2, 2, 2, 2, 2, 2, 2, 2, 2, 2, 2, 2, 2, 2, 2, 2
Branch- 1: 2, 0, 0, 0, 0, 0, 0, 0, 0, 0, 0, 0, 0, 0, 0, 0, 0, 0, 0, 0, 0, 0, 0, 0, 0, 0, 0, 0, 0, 0, 0, 0
Branch Status: 2
Branch- 0: 2, 2, 2, 0, 0, 0, 0, 0, 0, 0, 0, 0, 0, 0, 0, 0, 0, 0, 0, 0, 0, 0, 0, 0, 0, 0, 0, 0, 0, 0, 2, 2
Branch- 1: 0, 0, 0, 2, 2, 2, 2, 2, 2, 2, 2, 2, 2, 2, 2, 2, 2, 2, 2, 2, 2, 2, 2, 2, 2, 2, 2, 2, 2, 2, 0, 0
Branch Status: 2
Branch- 0: 2, 2, 2, 2, 2, 2, 2, 2, 2, 2, 2, 2, 2, 2, 2, 2, 2, 2, 2, 2, 2, 2, 2, 0, 2, 2, 2, 2, 2, 2, 2, 2
Branch- 1: 0, 0, 0, 0, 0, 0, 0, 0, 0, 0, 0, 0, 0, 0, 0, 0, 0, 0, 0, 0, 0, 0, 0, 2, 2, 2, 2, 2, 2, 2, 2, 2
Branch Status: 2
Branch- 0: 0, 2, 2, 2, 2, 2, 2, 2, 2, 2, 2, 2, 2, 2, 2, 2, 2, 2, 2, 2, 2, 2, 2, 2, 2, 2, 2, 2, 2, 2, 2, 2
Branch- 1: 2, 0, 0, 0, 0, 0, 0, 0, 0, 0, 0, 0, 0, 0, 0, 0, 0, 0, 0, 0, 0, 0, 0, 0, 0, 0, 0, 0, 0, 0, 0, 0
Branch Status: 2
Branch- 0: 2, 2, 2, 2, 2, 2, 2, 2, 2, 2, 2, 2, 2, 2, 2, 2, 2, 2, 2, 2, 2, 2, 2, 0, 2, 2, 2, 2, 2, 2, 2, 2
Branch- 1: 0, 0, 0, 0, 0, 0, 0, 0, 0, 0, 0, 0, 0, 0, 0, 0, 0, 0, 0, 0, 0, 0, 0, 2, 2, 2, 2, 2, 2, 2, 2, 2
Branch Status: 2
Branch- 0: 2, 0, 0, 0, 0, 0, 0, 0, 0, 0, 0, 0, 0, 0, 0, 0, 0, 0, 0, 0, 0, 0, 0, 0, 0, 0, 0, 0, 0, 0, 0, 0
Branch- 1: 0, 2, 2, 2, 2, 2, 2, 2, 2, 2, 2, 2, 2, 2, 2, 2, 2, 2, 2, 2, 2, 2, 2, 2, 2, 2, 2, 2, 2, 2, 2, 2
Branch Status: 2
Branch- 0: 2, 2, 2, 2, 2, 2, 2, 2, 2, 2, 2, 2, 2, 2, 2, 2, 2, 2, 2, 2, 2, 2, 2, 0, 2, 2, 2, 2, 2, 2, 2, 2
Branch- 1: 0, 0, 0, 0, 0, 0, 0, 0, 0, 0, 0, 0, 0, 0, 0, 0, 0, 0, 0, 0, 0, 0, 0, 2, 2, 2, 2, 2, 2, 2, 2, 2
GPGPU-Sim uArch: Shader 5 finished CTA #1 (1059454,0), 6 CTAs running
GPGPU-Sim uArch: core:  5, cta: 1 initialized @(1059455,0)
GPGPU-Sim uArch: Shader 5 finished CTA #0 (1059494,0), 6 CTAs running
GPGPU-Sim uArch: core:  5, cta: 0 initialized @(1059495,0)
GPGPU-Sim uArch: cycles simulated: 1059500  inst.: 401985180 (ipc=379.4) sim_rate=241722 (inst/sec) elapsed = 0:0:27:43 / Wed Dec  9 01:13:14 2015
Branch Status: 2
Branch- 0: 2, 2, 2, 2, 2, 2, 2, 2, 2, 2, 2, 2, 2, 2, 2, 2, 2, 2, 2, 2, 2, 2, 2, 0, 2, 2, 2, 2, 2, 2, 2, 2
Branch- 1: 0, 0, 0, 0, 0, 0, 0, 0, 0, 0, 0, 0, 0, 0, 0, 0, 0, 0, 0, 0, 0, 0, 0, 2, 2, 2, 2, 2, 2, 2, 2, 2
GPGPU-Sim PTX: 402100000 instructions simulated : ctaid=(74,41,0) tid=(89,0,0)
Branch Status: 2
Branch- 0: 2, 2, 2, 2, 2, 2, 2, 2, 2, 2, 2, 2, 2, 2, 2, 2, 2, 2, 2, 2, 2, 2, 2, 0, 2, 2, 2, 2, 2, 2, 2, 2
Branch- 1: 0, 0, 0, 0, 0, 0, 0, 0, 0, 0, 0, 0, 0, 0, 0, 0, 0, 0, 0, 0, 0, 0, 0, 2, 2, 2, 2, 2, 2, 2, 2, 2
Branch Status: 2
Branch- 0: 2, 2, 2, 2, 2, 2, 2, 2, 2, 2, 2, 2, 2, 2, 2, 2, 2, 2, 2, 2, 2, 2, 2, 0, 2, 2, 2, 2, 2, 2, 2, 2
Branch- 1: 0, 0, 0, 0, 0, 0, 0, 0, 0, 0, 0, 0, 0, 0, 0, 0, 0, 0, 0, 0, 0, 0, 0, 2, 2, 2, 2, 2, 2, 2, 2, 2
GPGPU-Sim uArch: Shader 12 finished CTA #1 (1059701,0), 6 CTAs running
GPGPU-Sim uArch: core: 12, cta: 1 initialized @(1059702,0)
GPGPU-Sim PTX: 402200000 instructions simulated : ctaid=(26,42,0) tid=(38,0,0)
GPGPU-Sim uArch: Shader 10 finished CTA #1 (1059706,0), 6 CTAs running
GPGPU-Sim uArch: core: 10, cta: 1 initialized @(1059707,0)
GPGPU-Sim uArch: Shader 5 finished CTA #5 (1059712,0), 6 CTAs running
GPGPU-Sim uArch: core:  5, cta: 5 initialized @(1059713,0)
GPGPU-Sim uArch: Shader 5 finished CTA #4 (1059761,0), 6 CTAs running
GPGPU-Sim uArch: core:  5, cta: 4 initialized @(1059762,0)
Branch Status: 2
Branch- 0: 2, 2, 2, 2, 2, 2, 2, 2, 2, 2, 2, 2, 2, 2, 2, 2, 2, 2, 2, 2, 2, 2, 2, 0, 2, 2, 2, 2, 2, 2, 2, 2
Branch- 1: 0, 0, 0, 0, 0, 0, 0, 0, 0, 0, 0, 0, 0, 0, 0, 0, 0, 0, 0, 0, 0, 0, 0, 2, 2, 2, 2, 2, 2, 2, 2, 2
GPGPU-Sim uArch: Shader 12 finished CTA #2 (1059887,0), 6 CTAs running
GPGPU-Sim uArch: core: 12, cta: 2 initialized @(1059888,0)
GPGPU-Sim uArch: Shader 12 finished CTA #4 (1059893,0), 6 CTAs running
GPGPU-Sim uArch: core: 12, cta: 4 initialized @(1059894,0)
GPGPU-Sim PTX: 402300000 instructions simulated : ctaid=(74,41,0) tid=(114,0,0)
GPGPU-Sim uArch: cycles simulated: 1060000  inst.: 402218206 (ipc=379.5) sim_rate=241717 (inst/sec) elapsed = 0:0:27:44 / Wed Dec  9 01:13:15 2015
Branch Status: 2
Branch- 0: 0, 2, 2, 2, 2, 2, 2, 2, 2, 2, 2, 2, 2, 2, 2, 2, 2, 2, 2, 2, 2, 2, 2, 2, 2, 2, 2, 2, 2, 2, 2, 0
Branch- 1: 2, 0, 0, 0, 0, 0, 0, 0, 0, 0, 0, 0, 0, 0, 0, 0, 0, 0, 0, 0, 0, 0, 0, 0, 0, 0, 0, 0, 0, 0, 0, 2
GPGPU-Sim PTX: 402400000 instructions simulated : ctaid=(33,42,0) tid=(50,0,0)
Branch Status: 2
Branch- 0: 0, 2, 2, 2, 2, 2, 2, 2, 2, 2, 2, 2, 2, 2, 2, 2, 2, 2, 2, 2, 2, 2, 2, 2, 2, 2, 2, 2, 2, 2, 0, 0
Branch- 1: 2, 0, 0, 0, 0, 0, 0, 0, 0, 0, 0, 0, 0, 0, 0, 0, 0, 0, 0, 0, 0, 0, 0, 0, 0, 0, 0, 0, 0, 0, 2, 2
GPGPU-Sim PTX: 402500000 instructions simulated : ctaid=(116,41,0) tid=(84,0,0)
Branch Status: 2
Branch- 0: 0, 0, 2, 2, 2, 2, 2, 2, 2, 2, 2, 2, 2, 2, 2, 2, 2, 2, 2, 2, 2, 2, 2, 2, 2, 2, 2, 2, 2, 2, 2, 2
Branch- 1: 2, 2, 0, 0, 0, 0, 0, 0, 0, 0, 0, 0, 0, 0, 0, 0, 0, 0, 0, 0, 0, 0, 0, 0, 0, 0, 0, 0, 0, 0, 0, 0
Branch Status: 2
Branch- 0: 2, 2, 2, 2, 2, 2, 2, 2, 2, 2, 2, 2, 2, 2, 2, 2, 2, 2, 2, 2, 2, 2, 2, 0, 2, 2, 2, 2, 2, 2, 2, 2
Branch- 1: 0, 0, 0, 0, 0, 0, 0, 0, 0, 0, 0, 0, 0, 0, 0, 0, 0, 0, 0, 0, 0, 0, 0, 2, 2, 2, 2, 2, 2, 2, 2, 2
Branch Status: 2
Branch- 0: 2, 2, 2, 2, 2, 2, 2, 2, 2, 2, 2, 2, 2, 2, 2, 2, 2, 2, 2, 2, 2, 2, 2, 0, 2, 2, 2, 2, 2, 2, 2, 2
Branch- 1: 0, 0, 0, 0, 0, 0, 0, 0, 0, 0, 0, 0, 0, 0, 0, 0, 0, 0, 0, 0, 0, 0, 0, 2, 2, 2, 2, 2, 2, 2, 2, 2
Branch Status: 2
Branch- 0: 0, 0, 0, 2, 2, 2, 2, 2, 2, 2, 2, 2, 2, 2, 2, 2, 2, 2, 2, 2, 2, 2, 2, 2, 2, 2, 2, 2, 2, 2, 2, 2
Branch- 1: 2, 2, 2, 0, 0, 0, 0, 0, 0, 0, 0, 0, 0, 0, 0, 0, 0, 0, 0, 0, 0, 0, 0, 0, 0, 0, 0, 0, 0, 0, 0, 0
GPGPU-Sim PTX: 402600000 instructions simulated : ctaid=(25,42,0) tid=(47,0,0)
/data/bigdata/2_Gpgpu_Architecture/parboil/common/mk/cuda.mk:71: recipe for target 'run' failed
Parboil parallel benchmark suite, version 0.2

Run failed!
