

        *** GPGPU-Sim Simulator Version 3.2.2  [build 0] ***


GPGPU-Sim PTX: simulation mode 0 (can change with PTX_SIM_MODE_FUNC environment variable:
               1=functional simulation only, 0=detailed performance simulator)
GPGPU-Sim: Configuration options:

-network_mode                           1 # Interconnection network mode
-inter_config_file   config_fermi_islip.icnt # Interconnection network config file
-gpgpu_ptx_use_cuobjdump                    1 # Use cuobjdump to extract ptx and sass from binaries
-gpgpu_experimental_lib_support                    0 # Try to extract code from cuda libraries [Broken because of unknown cudaGetExportTable]
-gpgpu_ptx_convert_to_ptxplus                    0 # Convert SASS (native ISA) to ptxplus and run ptxplus
-gpgpu_ptx_force_max_capability                   20 # Force maximum compute capability
-gpgpu_ptx_inst_debug_to_file                    0 # Dump executed instructions' debug information to file
-gpgpu_ptx_inst_debug_file       inst_debug.txt # Executed instructions' debug output file
-gpgpu_ptx_inst_debug_thread_uid                    1 # Thread UID for executed instructions' debug output
-gpgpu_simd_model                       1 # 1 = post-dominator
-gpgpu_shader_core_pipeline              1536:32 # shader core pipeline config, i.e., {<nthread>:<warpsize>}
-gpgpu_tex_cache:l1  4:128:24,L:R:m:N:L,F:128:4,128:2 # per-shader L1 texture cache  (READ-ONLY) config  {<nsets>:<bsize>:<assoc>,<rep>:<wr>:<alloc>:<wr_alloc>,<mshr>:<N>:<merge>,<mq>:<rf>}
-gpgpu_const_cache:l1 64:64:2,L:R:f:N:L,A:2:32,4 # per-shader L1 constant memory cache  (READ-ONLY) config  {<nsets>:<bsize>:<assoc>,<rep>:<wr>:<alloc>:<wr_alloc>,<mshr>:<N>:<merge>,<mq>} 
-gpgpu_cache:il1     4:128:4,L:R:f:N:L,A:2:32,4 # shader L1 instruction cache config  {<nsets>:<bsize>:<assoc>,<rep>:<wr>:<alloc>:<wr_alloc>,<mshr>:<N>:<merge>,<mq>} 
-gpgpu_cache:dl1     32:128:4,L:L:m:N:H,A:32:8,8 # per-shader L1 data cache config  {<nsets>:<bsize>:<assoc>,<rep>:<wr>:<alloc>:<wr_alloc>,<mshr>:<N>:<merge>,<mq> | none}
-gpgpu_cache:dl1PrefL1                 none # per-shader L1 data cache config  {<nsets>:<bsize>:<assoc>,<rep>:<wr>:<alloc>:<wr_alloc>,<mshr>:<N>:<merge>,<mq> | none}
-gpgpu_cache:dl1PreShared                 none # per-shader L1 data cache config  {<nsets>:<bsize>:<assoc>,<rep>:<wr>:<alloc>:<wr_alloc>,<mshr>:<N>:<merge>,<mq> | none}
-gmem_skip_L1D                          0 # global memory access skip L1D cache (implements -Xptxas -dlcm=cg, default=no skip)
-gpgpu_perfect_mem                      0 # enable perfect memory mode (no cache miss)
-n_regfile_gating_group                    4 # group of lanes that should be read/written together)
-gpgpu_clock_gated_reg_file                    0 # enable clock gated reg file for power calculations
-gpgpu_clock_gated_lanes                    0 # enable clock gated lanes for power calculations
-gpgpu_shader_registers                32768 # Number of registers per shader core. Limits number of concurrent CTAs. (default 8192)
-gpgpu_shader_cta                       8 # Maximum number of concurrent CTAs in shader (default 8)
-gpgpu_num_cta_barriers                   16 # Maximum number of named barriers per CTA (default 16)
-gpgpu_n_clusters                      15 # number of processing clusters
-gpgpu_n_cores_per_cluster                    1 # number of simd cores per cluster
-gpgpu_n_cluster_ejection_buffer_size                    8 # number of packets in ejection buffer
-gpgpu_n_ldst_response_buffer_size                    2 # number of response packets in ld/st unit ejection buffer
-gpgpu_shmem_size                   16384 # Size of shared memory per shader core (default 16kB)
-gpgpu_shmem_size                   49152 # Size of shared memory per shader core (default 16kB)
-gpgpu_shmem_size_PrefL1                16384 # Size of shared memory per shader core (default 16kB)
-gpgpu_shmem_size_PrefShared                16384 # Size of shared memory per shader core (default 16kB)
-gpgpu_shmem_num_banks                   32 # Number of banks in the shared memory in each shader core (default 16)
-gpgpu_shmem_limited_broadcast                    0 # Limit shared memory to do one broadcast per cycle (default on)
-gpgpu_shmem_warp_parts                    1 # Number of portions a warp is divided into for shared memory bank conflict check 
-gpgpu_warpdistro_shader                   -1 # Specify which shader core to collect the warp size distribution from
-gpgpu_warp_issue_shader                    0 # Specify which shader core to collect the warp issue distribution from
-gpgpu_local_mem_map                    1 # Mapping from local memory space address to simulated GPU physical address space (default = enabled)
-gpgpu_num_reg_banks                   16 # Number of register banks (default = 8)
-gpgpu_reg_bank_use_warp_id                    0 # Use warp ID in mapping registers to banks (default = off)
-gpgpu_operand_collector_num_units_sp                    6 # number of collector units (default = 4)
-gpgpu_operand_collector_num_units_sfu                    8 # number of collector units (default = 4)
-gpgpu_operand_collector_num_units_mem                    2 # number of collector units (default = 2)
-gpgpu_operand_collector_num_units_gen                    0 # number of collector units (default = 0)
-gpgpu_operand_collector_num_in_ports_sp                    2 # number of collector unit in ports (default = 1)
-gpgpu_operand_collector_num_in_ports_sfu                    1 # number of collector unit in ports (default = 1)
-gpgpu_operand_collector_num_in_ports_mem                    1 # number of collector unit in ports (default = 1)
-gpgpu_operand_collector_num_in_ports_gen                    0 # number of collector unit in ports (default = 0)
-gpgpu_operand_collector_num_out_ports_sp                    2 # number of collector unit in ports (default = 1)
-gpgpu_operand_collector_num_out_ports_sfu                    1 # number of collector unit in ports (default = 1)
-gpgpu_operand_collector_num_out_ports_mem                    1 # number of collector unit in ports (default = 1)
-gpgpu_operand_collector_num_out_ports_gen                    0 # number of collector unit in ports (default = 0)
-gpgpu_coalesce_arch                   13 # Coalescing arch (default = 13, anything else is off for now)
-gpgpu_num_sched_per_core                    2 # Number of warp schedulers per core
-gpgpu_max_insn_issue_per_warp                    1 # Max number of instructions that can be issued per warp in one cycle by scheduler
-gpgpu_simt_core_sim_order                    1 # Select the simulation order of cores in a cluster (0=Fix, 1=Round-Robin)
-gpgpu_pipeline_widths        2,1,1,2,1,1,2 # Pipeline widths ID_OC_SP,ID_OC_SFU,ID_OC_MEM,OC_EX_SP,OC_EX_SFU,OC_EX_MEM,EX_WB
-gpgpu_num_sp_units                     2 # Number of SP units (default=1)
-gpgpu_num_sfu_units                    1 # Number of SF units (default=1)
-gpgpu_num_mem_units                    1 # Number if ldst units (default=1) WARNING: not hooked up to anything
-gpgpu_scheduler                      gto # Scheduler configuration: < lrr | gto | two_level_active > If two_level_active:<num_active_warps>:<inner_prioritization>:<outer_prioritization>For complete list of prioritization values see shader.h enum scheduler_prioritization_typeDefault: gto
-gpgpu_dram_scheduler                    1 # 0 = fifo, 1 = FR-FCFS (defaul)
-gpgpu_dram_partition_queues              8:8:8:8 # i2$:$2d:d2$:$2i
-l2_ideal                               0 # Use a ideal L2 cache that always hit
-gpgpu_cache:dl2     64:128:8,L:B:m:W:L,A:32:4,4:0,32 # unified banked L2 data cache config  {<nsets>:<bsize>:<assoc>,<rep>:<wr>:<alloc>:<wr_alloc>,<mshr>:<N>:<merge>,<mq>}
-gpgpu_cache:dl2_texture_only                    0 # L2 cache used for texture only
-gpgpu_n_mem                            6 # number of memory modules (e.g. memory controllers) in gpu
-gpgpu_n_sub_partition_per_mchannel                    2 # number of memory subpartition in each memory module
-gpgpu_n_mem_per_ctrlr                    2 # number of memory chips per memory controller
-gpgpu_memlatency_stat                   14 # track and display latency statistics 0x2 enables MC, 0x4 enables queue logs
-gpgpu_frfcfs_dram_sched_queue_size                   16 # 0 = unlimited (default); # entries per chip
-gpgpu_dram_return_queue_size                  116 # 0 = unlimited (default); # entries per chip
-gpgpu_dram_buswidth                    4 # default = 4 bytes (8 bytes per cycle at DDR)
-gpgpu_dram_burst_length                    8 # Burst length of each DRAM request (default = 4 data bus cycle)
-dram_data_command_freq_ratio                    4 # Frequency ratio between DRAM data bus and command bus (default = 2 times, i.e. DDR)
-gpgpu_dram_timing_opt nbk=16:CCD=2:RRD=6:RCD=12:RAS=28:RP=12:RC=40: CL=12:WL=4:CDLR=5:WR=12:nbkgrp=4:CCDL=3:RTPL=2 # DRAM timing parameters = {nbk:tCCD:tRRD:tRCD:tRAS:tRP:tRC:CL:WL:tCDLR:tWR:nbkgrp:tCCDL:tRTPL}
-rop_latency                          120 # ROP queue latency (default 85)
-dram_latency                         100 # DRAM latency (default 30)
-gpgpu_mem_addr_mapping dramid@8;00000000.00000000.00000000.00000000.0000RRRR.RRRRRRRR.BBBCCCCB.CCSSSSSS # mapping memory address to dram model {dramid@<start bit>;<memory address map>}
-gpgpu_mem_addr_test                    0 # run sweep test to check address mapping for aliased address
-gpgpu_mem_address_mask                    1 # 0 = old addressing mask, 1 = new addressing mask, 2 = new add. mask + flipped bank sel and chip sel bits
-gpuwattch_xml_file  gpuwattch_gtx480.xml # GPUWattch XML file
-power_simulation_enabled                    1 # Turn on power simulator (1=On, 0=Off)
-power_per_cycle_dump                    0 # Dump detailed power output each cycle
-power_trace_enabled                    0 # produce a file for the power trace (1=On, 0=Off)
-power_trace_zlevel                     6 # Compression level of the power trace output log (0=no comp, 9=highest)
-steady_power_levels_enabled                    0 # produce a file for the steady power levels (1=On, 0=Off)
-steady_state_definition                  8:4 # allowed deviation:number of samples
-gpgpu_max_cycle                        0 # terminates gpu simulation early (0 = no limit)
-gpgpu_max_insn                         0 # terminates gpu simulation early (0 = no limit)
-gpgpu_max_cta                          0 # terminates gpu simulation early (0 = no limit)
-gpgpu_runtime_stat                   500 # display runtime statistics such as dram utilization {<freq>:<flag>}
-liveness_message_freq                    1 # Minimum number of seconds between simulation liveness messages (0 = always print)
-gpgpu_flush_l1_cache                    0 # Flush L1 cache at the end of each kernel call
-gpgpu_flush_l2_cache                    0 # Flush L2 cache at the end of each kernel call
-gpgpu_deadlock_detect                    1 # Stop the simulation at deadlock (1=on (default), 0=off)
-gpgpu_ptx_instruction_classification                    0 # if enabled will classify ptx instruction types per kernel (Max 255 kernels now)
-gpgpu_ptx_sim_mode                     0 # Select between Performance (default) or Functional simulation (1)
-gpgpu_clock_domains 700.0:700.0:700.0:924.0 # Clock Domain Frequencies in MhZ {<Core Clock>:<ICNT Clock>:<L2 Clock>:<DRAM Clock>}
-gpgpu_max_concurrent_kernel                    8 # maximum kernels that can run concurrently on GPU
-gpgpu_cflog_interval                    0 # Interval between each snapshot in control flow logger
-visualizer_enabled                     0 # Turn on visualizer output (1=On, 0=Off)
-visualizer_outputfile                 NULL # Specifies the output log file for visualizer
-visualizer_zlevel                      6 # Compression level of the visualizer output log (0=no comp, 9=highest)
-trace_enabled                          0 # Turn on traces
-trace_components                    none # comma seperated list of traces to enable. Complete list found in trace_streams.tup. Default none
-trace_sampling_core                    0 # The core which is printed using CORE_DPRINTF. Default 0
-trace_sampling_memory_partition                   -1 # The memory partition which is printed using MEMPART_DPRINTF. Default -1 (i.e. all)
-enable_ptx_file_line_stats                    1 # Turn on PTX source line statistic profiling. (1 = On)
-ptx_line_stats_filename gpgpu_inst_stats.txt # Output file for PTX source line statistics.
-save_embedded_ptx                      0 # saves ptx files embedded in binary as <n>.ptx
-keep                                   0 # keep intermediate files created by GPGPU-Sim when interfacing with external programs
-gpgpu_ptx_save_converted_ptxplus                    0 # Saved converted ptxplus to a file
-ptx_opcode_latency_int         4,13,4,5,145 # Opcode latencies for integers <ADD,MAX,MUL,MAD,DIV>Default 1,1,19,25,145
-ptx_opcode_latency_fp          4,13,4,5,39 # Opcode latencies for single precision floating points <ADD,MAX,MUL,MAD,DIV>Default 1,1,1,1,30
-ptx_opcode_latency_dp         8,19,8,8,330 # Opcode latencies for double precision floating points <ADD,MAX,MUL,MAD,DIV>Default 8,8,8,8,335
-ptx_opcode_initiation_int            1,2,2,1,8 # Opcode initiation intervals for integers <ADD,MAX,MUL,MAD,DIV>Default 1,1,4,4,32
-ptx_opcode_initiation_fp            1,2,1,1,4 # Opcode initiation intervals for single precision floating points <ADD,MAX,MUL,MAD,DIV>Default 1,1,1,1,5
-ptx_opcode_initiation_dp         8,16,8,8,130 # Opcode initiation intervals for double precision floating points <ADD,MAX,MUL,MAD,DIV>Default 8,8,8,8,130
DRAM Timing Options:
nbk                                    16 # number of banks
CCD                                     2 # column to column delay
RRD                                     6 # minimal delay between activation of rows in different banks
RCD                                    12 # row to column delay
RAS                                    28 # time needed to activate row
RP                                     12 # time needed to precharge (deactivate) row
RC                                     40 # row cycle time
CDLR                                    5 # switching from write to read (changes tWTR)
WR                                     12 # last data-in to row precharge
CL                                     12 # CAS latency
WL                                      4 # Write latency
nbkgrp                                  4 # number of bank groups
CCDL                                    3 # column to column delay between accesses to different bank groups
RTPL                                    2 # read to precharge delay between accesses to different bank groups
Total number of memory sub partition = 12
addr_dec_mask[CHIP]  = 0000000000000000 	high:64 low:0
addr_dec_mask[BK]    = 000000000000e100 	high:16 low:8
addr_dec_mask[ROW]   = 000000000fff0000 	high:28 low:16
addr_dec_mask[COL]   = 0000000000001eff 	high:13 low:0
addr_dec_mask[BURST] = 000000000000003f 	high:6 low:0
sub_partition_id_mask = 0000000000000100
GPGPU-Sim uArch: clock freqs: 700000000.000000:700000000.000000:700000000.000000:924000000.000000
GPGPU-Sim uArch: clock periods: 0.00000000142857142857:0.00000000142857142857:0.00000000142857142857:0.00000000108225108225
*** Initializing Memory Statistics ***
GPGPU-Sim uArch: interconnect node map (shaderID+MemID to icntID)
GPGPU-Sim uArch: Memory nodes ID start from index: 15
GPGPU-Sim uArch:    0   1   2   3   4
GPGPU-Sim uArch:    5   6   7   8   9
GPGPU-Sim uArch:   10  11  12  13  14
GPGPU-Sim uArch:   15  16  17  18  19
GPGPU-Sim uArch:   20  21  22  23  24
GPGPU-Sim uArch:   25  26
GPGPU-Sim uArch: interconnect node reverse map (icntID to shaderID+MemID)
GPGPU-Sim uArch: Memory nodes start from ID: 15
GPGPU-Sim uArch:    0   1   2   3   4
GPGPU-Sim uArch:    5   6   7   8   9
GPGPU-Sim uArch:   10  11  12  13  14
GPGPU-Sim uArch:   15  16  17  18  19
GPGPU-Sim uArch:   20  21  22  23  24
GPGPU-Sim uArch:   25  26
bb9e7b22eccd3b9febc52a3dfdab789c  /data/bigdata/2_Gpgpu_Architecture/rodinia_3.0/cuda/.run/bfs/sim
GPGPU-Sim uArch: performance model initialization complete.
GPGPU-Sim PTX: __cudaRegisterFatBinary, fat_cubin_handle = 1, filename=bfs.cu
self exe links to: /data/bigdata/2_Gpgpu_Architecture/rodinia_3.0/cuda/.run/bfs/sim
Running md5sum using "md5sum /data/bigdata/2_Gpgpu_Architecture/rodinia_3.0/cuda/.run/bfs/sim "
Running cuobjdump using "$CUDA_INSTALL_PATH/bin/cuobjdump -ptx -elf -sass /data/bigdata/2_Gpgpu_Architecture/rodinia_3.0/cuda/.run/bfs/sim > _cuobjdump_complete_output_bSXYdR"
Parsing file _cuobjdump_complete_output_bSXYdR
######### cuobjdump parser ########
## Adding new section PTX
Adding ptx filename: _cuobjdump_1.ptx
Adding arch: sm_20
Adding identifier: bfs.cu
Done parsing!!!
GPGPU-Sim PTX: __cudaRegisterFunction _Z7Kernel2PbS_S_S_i : hostFun 0x0x4016a5, fat_cubin_handle = 1
GPGPU-Sim PTX: Warning %temp1 was declared previous at _1.ptx:65 skipping new declaration
GPGPU-Sim PTX: Warning %temp2 was declared previous at _1.ptx:66 skipping new declaration
GPGPU-Sim PTX: instruction assembly for function '_Z6KernelP4NodePiPbS2_S2_S1_i'...   done.
GPGPU-Sim PTX: finding reconvergence points for '_Z6KernelP4NodePiPbS2_S2_S1_i'...
GPGPU-Sim PTX: Finding dominators for '_Z6KernelP4NodePiPbS2_S2_S1_i'...
GPGPU-Sim PTX: Finding immediate dominators for '_Z6KernelP4NodePiPbS2_S2_S1_i'...
GPGPU-Sim PTX: Finding postdominators for '_Z6KernelP4NodePiPbS2_S2_S1_i'...
GPGPU-Sim PTX: Finding immediate postdominators for '_Z6KernelP4NodePiPbS2_S2_S1_i'...
GPGPU-Sim PTX: pre-decoding instructions for '_Z6KernelP4NodePiPbS2_S2_S1_i'...
GPGPU-Sim PTX: reconvergence points for _Z6KernelP4NodePiPbS2_S2_S1_i...
GPGPU-Sim PTX:  1 (potential) branch divergence @  PC=0x090 (_1.ptx:59) @%p1 bra BB0_7;
GPGPU-Sim PTX:    immediate post dominator      @  PC=0x1f0 (_1.ptx:145) ret;
GPGPU-Sim PTX:  2 (potential) branch divergence @  PC=0x0d0 (_1.ptx:72) @%p2 bra BB0_7;
GPGPU-Sim PTX:    immediate post dominator      @  PC=0x1f0 (_1.ptx:145) ret;
GPGPU-Sim PTX:  3 (potential) branch divergence @  PC=0x118 (_1.ptx:90) @%p3 bra BB0_7;
GPGPU-Sim PTX:    immediate post dominator      @  PC=0x1f0 (_1.ptx:145) ret;
GPGPU-Sim PTX:  4 (potential) branch divergence @  PC=0x178 (_1.ptx:115) @%p4 bra BB0_6;
GPGPU-Sim PTX:    immediate post dominator      @  PC=0x1c0 (_1.ptx:134) ld.global.u32 %r22, [%rl9];
GPGPU-Sim PTX:  5 (potential) branch divergence @  PC=0x1e8 (_1.ptx:141) @%p5 bra BB0_4;
GPGPU-Sim PTX:    immediate post dominator      @  PC=0x1f0 (_1.ptx:145) ret;
GPGPU-Sim PTX: ... end of reconvergence points for _Z6KernelP4NodePiPbS2_S2_S1_i
GPGPU-Sim PTX: ... done pre-decoding instructions for '_Z6KernelP4NodePiPbS2_S2_S1_i'.
GPGPU-Sim PTX: instruction assembly for function '_Z7Kernel2PbS_S_S_i'...   done.
GPGPU-Sim PTX: finding reconvergence points for '_Z7Kernel2PbS_S_S_i'...
GPGPU-Sim PTX: Finding dominators for '_Z7Kernel2PbS_S_S_i'...
GPGPU-Sim PTX: Finding immediate dominators for '_Z7Kernel2PbS_S_S_i'...
GPGPU-Sim PTX: Finding postdominators for '_Z7Kernel2PbS_S_S_i'...
GPGPU-Sim PTX: Finding immediate postdominators for '_Z7Kernel2PbS_S_S_i'...
GPGPU-Sim PTX: pre-decoding instructions for '_Z7Kernel2PbS_S_S_i'...
GPGPU-Sim PTX: reconvergence points for _Z7Kernel2PbS_S_S_i...
GPGPU-Sim PTX:  1 (potential) branch divergence @  PC=0x268 (_1.ptx:185) @%p1 bra BB1_3;
GPGPU-Sim PTX:    immediate post dominator      @  PC=0x2f0 (_1.ptx:216) ret;
GPGPU-Sim PTX:  2 (potential) branch divergence @  PC=0x2a8 (_1.ptx:198) @%p2 bra BB1_3;
GPGPU-Sim PTX:    immediate post dominator      @  PC=0x2f0 (_1.ptx:216) ret;
GPGPU-Sim PTX: ... end of reconvergence points for _Z7Kernel2PbS_S_S_i
GPGPU-Sim PTX: ... done pre-decoding instructions for '_Z7Kernel2PbS_S_S_i'.
GPGPU-Sim PTX: finished parsing EMBEDDED .ptx file _1.ptx
Adding _cuobjdump_1.ptx with cubin handle 1
GPGPU-Sim PTX: extracting embedded .ptx to temporary file "_ptx_nDZM3l"
Running: cat _ptx_nDZM3l | sed 's/.version 1.5/.version 1.4/' | sed 's/, texmode_independent//' | sed 's/\(\.extern \.const\[1\] .b8 \w\+\)\[\]/\1\[1\]/' | sed 's/const\[.\]/const\[0\]/g' > _ptx2_9kTBTQ
CF_UTILS: Static Branch stats
extrinsic: 2, intrinsic: 5
GPGPU-Sim PTX: generating ptxinfo using "$CUDA_INSTALL_PATH/bin/ptxas --gpu-name=sm_20 -v _ptx2_9kTBTQ_lab --output-file  /dev/null 2> _ptx_nDZM3linfo"
GPGPU-Sim PTX: Kernel '_Z6KernelP4NodePiPbS2_S2_S1_i' : regs=13, lmem=0, smem=0, cmem=84
GPGPU-Sim PTX: Kernel '_Z7Kernel2PbS_S_S_i' : regs=12, lmem=0, smem=0, cmem=68
GPGPU-Sim PTX: removing ptxinfo using "rm -f _ptx_nDZM3l _ptx2_9kTBTQ _ptx_nDZM3linfo"
GPGPU-Sim PTX: loading globals with explicit initializers... 
GPGPU-Sim PTX: finished loading globals (0 bytes total).
GPGPU-Sim PTX: loading constants with explicit initializers...  done.
GPGPU-Sim PTX: __cudaRegisterFunction _Z6KernelP4NodePiPbS2_S2_S1_i : hostFun 0x0x401569, fat_cubin_handle = 1
Reading File
Read File
Copied Everything to GPU memory
Start traversing the tree

GPGPU-Sim PTX: cudaLaunch for 0x0x401569 (mode=performance simulation) on stream 0
GPGPU-Sim PTX: pushing kernel '_Z6KernelP4NodePiPbS2_S2_S1_i' to stream 0, gridDim= (8,1,1) blockDim = (512,1,1) 
kernel '_Z6KernelP4NodePiPbS2_S2_S1_i' transfer to GPU hardware scheduler
GPGPU-Sim uArch: Shader 1 bind to kernel 1 '_Z6KernelP4NodePiPbS2_S2_S1_i'
GPGPU-Sim uArch: CTA/core = 3, limited by: threads
GPGPU-Sim uArch: core:  1, cta: 0 initialized @(1,0)
GPGPU-Sim uArch: Shader 2 bind to kernel 1 '_Z6KernelP4NodePiPbS2_S2_S1_i'
GPGPU-Sim uArch: core:  2, cta: 0 initialized @(1,0)
GPGPU-Sim uArch: Shader 3 bind to kernel 1 '_Z6KernelP4NodePiPbS2_S2_S1_i'
GPGPU-Sim uArch: core:  3, cta: 0 initialized @(1,0)
GPGPU-Sim uArch: Shader 4 bind to kernel 1 '_Z6KernelP4NodePiPbS2_S2_S1_i'
GPGPU-Sim uArch: core:  4, cta: 0 initialized @(1,0)
GPGPU-Sim uArch: Shader 5 bind to kernel 1 '_Z6KernelP4NodePiPbS2_S2_S1_i'
GPGPU-Sim uArch: core:  5, cta: 0 initialized @(1,0)
GPGPU-Sim uArch: Shader 6 bind to kernel 1 '_Z6KernelP4NodePiPbS2_S2_S1_i'
GPGPU-Sim uArch: core:  6, cta: 0 initialized @(1,0)
GPGPU-Sim uArch: Shader 7 bind to kernel 1 '_Z6KernelP4NodePiPbS2_S2_S1_i'
GPGPU-Sim uArch: core:  7, cta: 0 initialized @(1,0)
GPGPU-Sim uArch: Shader 8 bind to kernel 1 '_Z6KernelP4NodePiPbS2_S2_S1_i'
GPGPU-Sim uArch: core:  8, cta: 0 initialized @(1,0)
GPGPU-Sim uArch: cycles simulated: 500  inst.: 0 (ipc= 0.0) sim_rate=0 (inst/sec) elapsed = 0:0:00:01 / Tue Dec  8 20:58:03 2015
GPGPU-Sim PTX: 100000 instructions simulated : ctaid=(2,0,0) tid=(31,0,0)
Branch Status: 2
Branch- 0: 0, 2, 2, 2, 2, 2, 2, 2, 2, 2, 2, 2, 2, 2, 2, 2, 2, 2, 2, 2, 2, 2, 2, 2, 2, 2, 2, 2, 2, 2, 2, 2
GPGPU-Sim uArch: Shader 6 finished CTA #0 (1499,0), 0 CTAs running
GPGPU-Sim uArch: Shader 6 empty (release kernel 1 '_Z6KernelP4NodePiPbS2_S2_S1_i').


BRANCH_STATS_PRINT: For Shader_id=6, Kernel(uid=1, name: '_Z6KernelP4NodePiPbS2_S2_S1_i').
------------------------------------------------------------------------------------------------
          PC         TYPE       TARGET  INSTANCES        TAKEN       OCCUPANCY    DYN_COUNT
------------------------------------------------------------------------------------------------
          90    extrinsic          1f0        512     0.000000        0.000000           16
          d0    intrinsic          1f0        512     1.000000        1.000000           16


GPGPU-Sim uArch: Shader 2 finished CTA #0 (1505,0), 0 CTAs running
GPGPU-Sim uArch: Shader 2 empty (release kernel 1 '_Z6KernelP4NodePiPbS2_S2_S1_i').


BRANCH_STATS_PRINT: For Shader_id=2, Kernel(uid=1, name: '_Z6KernelP4NodePiPbS2_S2_S1_i').
------------------------------------------------------------------------------------------------
          PC         TYPE       TARGET  INSTANCES        TAKEN       OCCUPANCY    DYN_COUNT
------------------------------------------------------------------------------------------------
          90    extrinsic          1f0        512     0.000000        0.000000           16
          d0    intrinsic          1f0        512     1.000000        1.000000           16


GPGPU-Sim uArch: Shader 4 finished CTA #0 (1511,0), 0 CTAs running
GPGPU-Sim uArch: Shader 4 empty (release kernel 1 '_Z6KernelP4NodePiPbS2_S2_S1_i').


BRANCH_STATS_PRINT: For Shader_id=4, Kernel(uid=1, name: '_Z6KernelP4NodePiPbS2_S2_S1_i').
------------------------------------------------------------------------------------------------
          PC         TYPE       TARGET  INSTANCES        TAKEN       OCCUPANCY    DYN_COUNT
------------------------------------------------------------------------------------------------
          90    extrinsic          1f0        512     0.000000        0.000000           16
          d0    intrinsic          1f0        512     1.000000        1.000000           16


GPGPU-Sim uArch: Shader 5 finished CTA #0 (1517,0), 0 CTAs running
GPGPU-Sim uArch: Shader 5 empty (release kernel 1 '_Z6KernelP4NodePiPbS2_S2_S1_i').


BRANCH_STATS_PRINT: For Shader_id=5, Kernel(uid=1, name: '_Z6KernelP4NodePiPbS2_S2_S1_i').
------------------------------------------------------------------------------------------------
          PC         TYPE       TARGET  INSTANCES        TAKEN       OCCUPANCY    DYN_COUNT
------------------------------------------------------------------------------------------------
          90    extrinsic          1f0        512     0.000000        0.000000           16
          d0    intrinsic          1f0        512     1.000000        1.000000           16


GPGPU-Sim uArch: Shader 7 finished CTA #0 (1529,0), 0 CTAs running
GPGPU-Sim uArch: Shader 7 empty (release kernel 1 '_Z6KernelP4NodePiPbS2_S2_S1_i').


BRANCH_STATS_PRINT: For Shader_id=7, Kernel(uid=1, name: '_Z6KernelP4NodePiPbS2_S2_S1_i').
------------------------------------------------------------------------------------------------
          PC         TYPE       TARGET  INSTANCES        TAKEN       OCCUPANCY    DYN_COUNT
------------------------------------------------------------------------------------------------
          90    extrinsic          1f0        512     0.000000        0.000000           16
          d0    intrinsic          1f0        512     1.000000        1.000000           16


GPGPU-Sim uArch: Shader 8 finished CTA #0 (1535,0), 0 CTAs running
GPGPU-Sim uArch: Shader 8 empty (release kernel 1 '_Z6KernelP4NodePiPbS2_S2_S1_i').


BRANCH_STATS_PRINT: For Shader_id=8, Kernel(uid=1, name: '_Z6KernelP4NodePiPbS2_S2_S1_i').
------------------------------------------------------------------------------------------------
          PC         TYPE       TARGET  INSTANCES        TAKEN       OCCUPANCY    DYN_COUNT
------------------------------------------------------------------------------------------------
          90    extrinsic          1f0        512     0.000000        0.000000           16
          d0    intrinsic          1f0        512     1.000000        1.000000           16


GPGPU-Sim uArch: Shader 3 finished CTA #0 (1541,0), 0 CTAs running
GPGPU-Sim uArch: Shader 3 empty (release kernel 1 '_Z6KernelP4NodePiPbS2_S2_S1_i').


BRANCH_STATS_PRINT: For Shader_id=3, Kernel(uid=1, name: '_Z6KernelP4NodePiPbS2_S2_S1_i').
------------------------------------------------------------------------------------------------
          PC         TYPE       TARGET  INSTANCES        TAKEN       OCCUPANCY    DYN_COUNT
------------------------------------------------------------------------------------------------
          90    extrinsic          1f0        512     0.000000        0.000000           16
          d0    intrinsic          1f0        512     1.000000        1.000000           16


GPGPU-Sim uArch: Shader 1 finished CTA #0 (6312,0), 0 CTAs running
GPGPU-Sim uArch: Shader 1 empty (release kernel 1 '_Z6KernelP4NodePiPbS2_S2_S1_i').


BRANCH_STATS_PRINT: For Shader_id=1, Kernel(uid=1, name: '_Z6KernelP4NodePiPbS2_S2_S1_i').
------------------------------------------------------------------------------------------------
          PC         TYPE       TARGET  INSTANCES        TAKEN       OCCUPANCY    DYN_COUNT
------------------------------------------------------------------------------------------------
          90    extrinsic          1f0        512     0.000000        0.000000           16
          d0    intrinsic          1f0        512     0.998047        0.998047           16
         118    intrinsic          1f0          1     0.000000        0.000000            1
         178    intrinsic          1c0         10     0.000000        0.000000           10
         1e8    intrinsic          130         10     0.900000        0.028125           10


GPGPU-Sim uArch: GPU detected kernel '_Z6KernelP4NodePiPbS2_S2_S1_i' finished on shader 1.


BRANCH_STATS_PRINT: For Kernel(uid=1, name: '_Z6KernelP4NodePiPbS2_S2_S1_i').
------------------------------------------------------------------------------------------------
          PC         TYPE       TARGET  INSTANCES        TAKEN       OCCUPANCY    DYN_COUNT
------------------------------------------------------------------------------------------------
          90    extrinsic          1f0       4096     0.000000        0.000000          128
          d0    intrinsic          1f0       4096     0.999756        0.999756          128
         118    intrinsic          1f0          1     0.000000        0.000000            1
         178    intrinsic          1c0         10     0.000000        0.000000           10
         1e8    intrinsic          130         10     0.900000        0.028125           10


Thread stats:
      ACTIVE,    EXTRINSIC,    INTRINSIC

      114939,            0,         7781

kernel_name = _Z6KernelP4NodePiPbS2_S2_S1_i 
kernel_launch_uid = 1 
gpu_sim_cycle = 6313
gpu_sim_insn = 110830
gpu_ipc =      17.5558
gpu_tot_sim_cycle = 6313
gpu_tot_sim_insn = 110830
gpu_tot_ipc =      17.5558
gpu_tot_issued_cta = 0
gpu_stall_dramfull = 0
gpu_stall_icnt2sh    = 83
gpu_total_sim_rate=110830

========= Core cache stats =========
L1I_cache:
	L1I_total_cache_accesses = 2438
	L1I_total_cache_misses = 384
	L1I_total_cache_miss_rate = 0.1575
	L1I_total_cache_pending_hits = 0
	L1I_total_cache_reservation_fails = 0
L1D_cache:
	L1D_cache_core[0]: Access = 0, Miss = 0, Miss_rate = -nan, Pending_hits = 0, Reservation_fails = 0
	L1D_cache_core[1]: Access = 89, Miss = 37, Miss_rate = 0.416, Pending_hits = 12, Reservation_fails = 0
	L1D_cache_core[2]: Access = 16, Miss = 4, Miss_rate = 0.250, Pending_hits = 12, Reservation_fails = 0
	L1D_cache_core[3]: Access = 16, Miss = 4, Miss_rate = 0.250, Pending_hits = 12, Reservation_fails = 0
	L1D_cache_core[4]: Access = 16, Miss = 4, Miss_rate = 0.250, Pending_hits = 12, Reservation_fails = 0
	L1D_cache_core[5]: Access = 16, Miss = 4, Miss_rate = 0.250, Pending_hits = 12, Reservation_fails = 0
	L1D_cache_core[6]: Access = 16, Miss = 4, Miss_rate = 0.250, Pending_hits = 12, Reservation_fails = 0
	L1D_cache_core[7]: Access = 16, Miss = 4, Miss_rate = 0.250, Pending_hits = 12, Reservation_fails = 0
	L1D_cache_core[8]: Access = 16, Miss = 4, Miss_rate = 0.250, Pending_hits = 12, Reservation_fails = 0
	L1D_cache_core[9]: Access = 0, Miss = 0, Miss_rate = -nan, Pending_hits = 0, Reservation_fails = 0
	L1D_cache_core[10]: Access = 0, Miss = 0, Miss_rate = -nan, Pending_hits = 0, Reservation_fails = 0
	L1D_cache_core[11]: Access = 0, Miss = 0, Miss_rate = -nan, Pending_hits = 0, Reservation_fails = 0
	L1D_cache_core[12]: Access = 0, Miss = 0, Miss_rate = -nan, Pending_hits = 0, Reservation_fails = 0
	L1D_cache_core[13]: Access = 0, Miss = 0, Miss_rate = -nan, Pending_hits = 0, Reservation_fails = 0
	L1D_cache_core[14]: Access = 0, Miss = 0, Miss_rate = -nan, Pending_hits = 0, Reservation_fails = 0
	L1D_total_cache_accesses = 201
	L1D_total_cache_misses = 65
	L1D_total_cache_miss_rate = 0.3234
	L1D_total_cache_pending_hits = 96
	L1D_total_cache_reservation_fails = 0
	L1D_cache_data_port_util = 0.002
	L1D_cache_fill_port_util = 0.003
L1C_cache:
	L1C_total_cache_accesses = 896
	L1C_total_cache_misses = 256
	L1C_total_cache_miss_rate = 0.2857
	L1C_total_cache_pending_hits = 0
	L1C_total_cache_reservation_fails = 1880
L1T_cache:
	L1T_total_cache_accesses = 0
	L1T_total_cache_misses = 0
	L1T_total_cache_pending_hits = 0
	L1T_total_cache_reservation_fails = 0

Total_core_cache_stats:
	Total_core_cache_stats_breakdown[GLOBAL_ACC_R][HIT] = 39
	Total_core_cache_stats_breakdown[GLOBAL_ACC_R][HIT_RESERVED] = 96
	Total_core_cache_stats_breakdown[GLOBAL_ACC_R][MISS] = 45
	Total_core_cache_stats_breakdown[CONST_ACC_R][HIT] = 640
	Total_core_cache_stats_breakdown[CONST_ACC_R][MISS] = 256
	Total_core_cache_stats_breakdown[CONST_ACC_R][RESERVATION_FAIL] = 1880
	Total_core_cache_stats_breakdown[GLOBAL_ACC_W][HIT] = 1
	Total_core_cache_stats_breakdown[GLOBAL_ACC_W][MISS] = 20
	Total_core_cache_stats_breakdown[INST_ACC_R][HIT] = 2054
	Total_core_cache_stats_breakdown[INST_ACC_R][MISS] = 384
Shader 0 warp_id issue ditsribution:
warp_id:

distro:

gpgpu_n_tot_thrd_icount = 122720
gpgpu_n_tot_w_icount = 3835
gpgpu_n_stall_shd_mem = 1880
gpgpu_n_mem_read_local = 0
gpgpu_n_mem_write_local = 0
gpgpu_n_mem_read_global = 45
gpgpu_n_mem_write_global = 21
gpgpu_n_mem_texture = 0
gpgpu_n_mem_const = 8
gpgpu_n_load_insn  = 4148
gpgpu_n_store_insn = 21
gpgpu_n_shmem_insn = 0
gpgpu_n_tex_insn = 0
gpgpu_n_const_mem_insn = 0
gpgpu_n_param_mem_insn = 28672
gpgpu_n_shmem_bkconflict = 0
gpgpu_n_cache_bkconflict = 0
gpgpu_n_intrawarp_mshr_merge = 0
gpgpu_n_cmem_portconflict = 1880
gpgpu_stall_shd_mem[c_mem][bk_conf] = 1880
gpgpu_stall_shd_mem[c_mem][mshr_rc] = 0
gpgpu_stall_shd_mem[c_mem][icnt_rc] = 0
gpgpu_stall_shd_mem[c_mem][data_port_stall] = 0
gpgpu_stall_shd_mem[t_mem][mshr_rc] = 0
gpgpu_stall_shd_mem[t_mem][icnt_rc] = 0
gpgpu_stall_shd_mem[t_mem][data_port_stall] = 0
gpgpu_stall_shd_mem[s_mem][bk_conf] = 0
gpgpu_stall_shd_mem[gl_mem][bk_conf] = 0
gpgpu_stall_shd_mem[gl_mem][coal_stall] = 0
gpgpu_stall_shd_mem[gl_mem][data_port_stall] = 0
gpgpu_stall_shd_mem[g_mem_ld][mshr_rc] = 0
gpgpu_stall_shd_mem[g_mem_ld][icnt_rc] = 0
gpgpu_stall_shd_mem[g_mem_ld][wb_icnt_rc] = 0
gpgpu_stall_shd_mem[g_mem_ld][wb_rsrv_fail] = 0
gpgpu_stall_shd_mem[g_mem_st][mshr_rc] = 0
gpgpu_stall_shd_mem[g_mem_st][icnt_rc] = 0
gpgpu_stall_shd_mem[g_mem_st][wb_icnt_rc] = 0
gpgpu_stall_shd_mem[g_mem_st][wb_rsrv_fail] = 0
gpgpu_stall_shd_mem[l_mem_ld][mshr_rc] = 0
gpgpu_stall_shd_mem[l_mem_ld][icnt_rc] = 0
gpgpu_stall_shd_mem[l_mem_ld][wb_icnt_rc] = 0
gpgpu_stall_shd_mem[l_mem_ld][wb_rsrv_fail] = 0
gpgpu_stall_shd_mem[l_mem_st][mshr_rc] = 0
gpgpu_stall_shd_mem[l_mem_st][icnt_rc] = 0
gpgpu_stall_shd_mem[l_mem_ld][wb_icnt_rc] = 0
gpgpu_stall_shd_mem[l_mem_ld][wb_rsrv_fail] = 0
gpu_reg_bank_conflict_stalls = 0
Warp Occupancy Distribution:
Stall:4177	W0_Idle:17286	W0_Scoreboard:8630	W1:251	W2:0	W3:0	W4:0	W5:0	W6:0	W7:0	W8:0	W9:0	W10:0	W11:0	W12:0	W13:0	W14:0	W15:0	W16:0	W17:0	W18:0	W19:0	W20:0	W21:0	W22:0	W23:0	W24:0	W25:0	W26:0	W27:0	W28:0	W29:0	W30:0	W31:0	W32:3584
traffic_breakdown_coretomem[CONST_ACC_R] = 64 {8:8,}
traffic_breakdown_coretomem[GLOBAL_ACC_R] = 360 {8:45,}
traffic_breakdown_coretomem[GLOBAL_ACC_W] = 840 {40:21,}
traffic_breakdown_coretomem[INST_ACC_R] = 200 {8:25,}
traffic_breakdown_memtocore[CONST_ACC_R] = 576 {72:8,}
traffic_breakdown_memtocore[GLOBAL_ACC_R] = 6120 {136:45,}
traffic_breakdown_memtocore[GLOBAL_ACC_W] = 168 {8:21,}
traffic_breakdown_memtocore[INST_ACC_R] = 3400 {136:25,}
maxmrqlatency = 9 
maxdqlatency = 0 
maxmflatency = 278 
averagemflatency = 258 
max_icnt2mem_latency = 22 
max_icnt2sh_latency = 6312 
mrq_lat_table:80 	1 	6 	3 	0 	0 	0 	0 	0 	0 	0 	0 	0 	0 	0 	0 	0 	0 	0 	0 	0 	0 	0 	0 	0 	0 	0 	0 	0 	0 	0 	0 	
dq_lat_table:0 	0 	0 	0 	0 	0 	0 	0 	0 	0 	0 	0 	0 	0 	0 	0 	0 	0 	0 	0 	0 	0 	0 	0 	0 	0 	0 	0 	0 	0 	0 	0 	
mf_lat_table:0 	0 	0 	0 	0 	0 	0 	22 	52 	0 	0 	0 	0 	0 	0 	0 	0 	0 	0 	0 	0 	0 	0 	0 	0 	0 	0 	0 	0 	0 	0 	0 	
icnt2mem_lat_table:0 	0 	0 	95 	4 	0 	0 	0 	0 	0 	0 	0 	0 	0 	0 	0 	0 	0 	0 	0 	0 	0 	0 	0 	
icnt2sh_lat_table:0 	0 	0 	46 	7 	0 	0 	0 	0 	0 	1 	8 	12 	0 	0 	0 	0 	0 	0 	0 	0 	0 	0 	0 	
mf_lat_pw_table:0 	0 	0 	0 	0 	0 	0 	7 	4 	0 	0 	0 	0 	0 	0 	0 	0 	0 	0 	0 	0 	0 	0 	0 	0 	0 	0 	0 	0 	0 	0 	0 	
maximum concurrent accesses to same row:
dram[0]:         1         0         0         0         0         0         0         0         0         0         0         0         0         0         0         0 
dram[1]:         0         0         0         0         0         0         0         0         0         0         0         0         0         0         0         0 
dram[2]:         0         0         0         0         0         0         0         0         0         0         0         0         0         0         0         0 
dram[3]:         0         0         0         0         0         0         0         0         0         0         0         0         0         0         0         0 
dram[4]:         0         0         0         0         0         0         0         0         0         0         0         0         0         0         0         0 
dram[5]:         0         0         0         0         0         0         0         0         0         0         0         0         0         0         0         0 
maximum service time to same row:
dram[0]:       316         0         0         0         0         0         0         0         0         0      1159      1146         0         0         0         0 
dram[1]:      1441         0         0         0         0         0         0         0         0         0      1171      1154         0         0         0         0 
dram[2]:         0         0         0         0         0      1491         0         0         0         0      1169      1176         0         0         0         0 
dram[3]:         0         0         0         0         0         0         0         0         0         0      1179      1185         0         0         0         0 
dram[4]:         0         0         0         0         0         0      1901         0         0         0      1163      1151         0         0         0         0 
dram[5]:         0         0         0         0         0         0         0         0         0         0      1172      1160         0         0         0         0 
average row accesses per activate:
dram[0]:  1.000000      -nan      -nan      -nan      -nan      -nan      -nan      -nan      -nan      -nan  5.000000  7.000000      -nan      -nan      -nan      -nan 
dram[1]:  2.000000      -nan      -nan      -nan      -nan      -nan      -nan      -nan      -nan      -nan 10.000000  8.000000      -nan      -nan      -nan      -nan 
dram[2]:      -nan      -nan      -nan      -nan      -nan  1.000000      -nan      -nan      -nan      -nan  6.000000  5.000000      -nan      -nan      -nan      -nan 
dram[3]:      -nan      -nan      -nan      -nan      -nan      -nan      -nan      -nan      -nan      -nan  5.000000  4.000000      -nan      -nan      -nan      -nan 
dram[4]:      -nan      -nan      -nan      -nan      -nan      -nan  1.000000      -nan      -nan      -nan  8.000000  8.000000      -nan      -nan      -nan      -nan 
dram[5]:      -nan      -nan      -nan      -nan      -nan      -nan      -nan      -nan      -nan      -nan 13.000000  4.000000      -nan      -nan      -nan      -nan 
average row locality = 90/18 = 5.000000
number of total memory accesses made:
dram[0]:         0         0         0         0         0         0         0         0         0         0         0         0         0         0         0         0 
dram[1]:         0         0         0         0         0         0         0         0         0         0         0         0         0         0         0         0 
dram[2]:         0         0         0         0         0         0         0         0         0         0         0         0         0         0         0         0 
dram[3]:         0         0         0         0         0         0         0         0         0         0         0         0         0         0         0         0 
dram[4]:         0         0         0         0         0         0         0         0         0         0         0         0         0         0         0         0 
dram[5]:         0         0         0         0         0         0         0         0         0         0         0         0         0         0         0         0 
total accesses: 0
min_bank_accesses = 0!
min_chip_accesses = 0!
number of total read accesses:
dram[0]:         3         0         0         0         0         0         0         0         0         0         4         6         0         0         0         0 
dram[1]:         2         0         0         0         0         0         0         0         0         0         6         6         0         0         0         0 
dram[2]:         0         0         0         0         0         1         0         0         0         0         5         4         0         0         0         0 
dram[3]:         0         0         0         0         0         0         0         0         0         0         4         4         0         0         0         0 
dram[4]:         0         0         0         0         0         0         1         0         0         0         7         5         0         0         0         0 
dram[5]:         0         0         0         0         0         0         0         0         0         0         9         3         0         0         0         0 
total reads: 70
min_bank_accesses = 0!
chip skew: 14/8 = 1.75
number of total write accesses:
dram[0]:         0         0         0         0         0         0         0         0         0         0         1         1         0         0         0         0 
dram[1]:         0         0         0         0         0         0         0         0         0         0         4         2         0         0         0         0 
dram[2]:         0         0         0         0         0         0         0         0         0         0         1         1         0         0         0         0 
dram[3]:         0         0         0         0         0         0         0         0         0         0         1         0         0         0         0         0 
dram[4]:         0         0         0         0         0         0         0         0         0         0         1         3         0         0         0         0 
dram[5]:         0         0         0         0         0         0         0         0         0         0         4         1         0         0         0         0 
total reads: 20
min_bank_accesses = 0!
chip skew: 6/1 = 6.00
average mf latency per bank:
dram[0]:        712    none      none      none      none      none      none      none      none      none         208       222    none      none      none      none  
dram[1]:          0    none      none      none      none      none      none      none      none      none         151       193    none      none      none      none  
dram[2]:     none      none      none      none      none         268    none      none      none      none         216       209    none      none      none      none  
dram[3]:     none      none      none      none      none      none      none      none      none      none         207       264    none      none      none      none  
dram[4]:     none      none      none      none      none      none         267    none      none      none         245       159    none      none      none      none  
dram[5]:     none      none      none      none      none      none      none      none      none      none         177       196    none      none      none      none  
maximum mf latency per bank:
dram[0]:        278         0         0         0         0         0         0         0         0         0       268       268         0         0         0         0
dram[1]:          0         0         0         0         0         0         0         0         0         0       268       272         0         0         0         0
dram[2]:          0         0         0         0         0       268         0         0         0         0       268       271         0         0         0         0
dram[3]:          0         0         0         0         0         0         0         0         0         0       272       275         0         0         0         0
dram[4]:          0         0         0         0         0         0       267         0         0         0       268       267         0         0         0         0
dram[5]:          0         0         0         0         0         0         0         0         0         0       272       271         0         0         0         0
Memory Partition 0: 
Cache L2_bank_000:
MSHR contents

Cache L2_bank_001:
MSHR contents

In Dram Latency Queue (total = 0): 
DRAM[0]: 16 bks, busW=4 BL=8 CL=12, tRRD=2 tCCD=6, tRCD=12 tRAS=28 tRP=12 tRC=40
n_cmd=8332 n_nop=8297 n_act=5 n_pre=2 n_req=15 n_rd=26 n_write=2 bw_util=0.006721
n_activity=302 dram_eff=0.1854
bk0: 6a 8259i bk1: 0a 8329i bk2: 0a 8332i bk3: 0a 8332i bk4: 0a 8332i bk5: 0a 8332i bk6: 0a 8333i bk7: 0a 8333i bk8: 0a 8334i bk9: 0a 8334i bk10: 8a 8292i bk11: 12a 8282i bk12: 0a 8330i bk13: 0a 8330i bk14: 0a 8331i bk15: 0a 8331i 
dram_util_bins: 0 0 0 0 0 0 0 0 0 0
dram_eff_bins: 0 0 0 0 0 0 0 0 0 0
mrqq: max=1 avg=0.00168027
Memory Partition 1: 
Cache L2_bank_002:
MSHR contents

Cache L2_bank_003:
MSHR contents

In Dram Latency Queue (total = 0): 
DRAM[1]: 16 bks, busW=4 BL=8 CL=12, tRRD=2 tCCD=6, tRCD=12 tRAS=28 tRP=12 tRC=40
n_cmd=8332 n_nop=8295 n_act=3 n_pre=0 n_req=20 n_rd=28 n_write=6 bw_util=0.008161
n_activity=299 dram_eff=0.2274
bk0: 4a 8311i bk1: 0a 8331i bk2: 0a 8331i bk3: 0a 8332i bk4: 0a 8332i bk5: 0a 8332i bk6: 0a 8332i bk7: 0a 8333i bk8: 0a 8334i bk9: 0a 8334i bk10: 12a 8252i bk11: 12a 8274i bk12: 0a 8330i bk13: 0a 8330i bk14: 0a 8331i bk15: 0a 8332i 
dram_util_bins: 0 0 0 0 0 0 0 0 0 0
dram_eff_bins: 0 0 0 0 0 0 0 0 0 0
mrqq: max=1 avg=0.000600096
Memory Partition 2: 
Cache L2_bank_004:
MSHR contents

Cache L2_bank_005:
MSHR contents
MSHR: tag=0x80021080, atomic=0 1 entries : 0x7fd488d5ee50 :  mf: uid=  5435, sid01:w00, part=2, addr=0x800210c0, load , size=32, unknown  status = IN_PARTITION_DRAM (6310), 

In Dram Latency Queue (total = 0): 
DRAM[2]: 16 bks, busW=4 BL=8 CL=12, tRRD=2 tCCD=6, tRCD=12 tRAS=28 tRP=12 tRC=40
n_cmd=8332 n_nop=8307 n_act=3 n_pre=0 n_req=12 n_rd=20 n_write=2 bw_util=0.005281
n_activity=177 dram_eff=0.2486
bk0: 0a 8332i bk1: 0a 8333i bk2: 0a 8333i bk3: 0a 8333i bk4: 0a 8333i bk5: 2a 8317i bk6: 0a 8332i bk7: 0a 8332i bk8: 0a 8332i bk9: 0a 8332i bk10: 10a 8286i bk11: 8a 8285i bk12: 0a 8330i bk13: 0a 8331i bk14: 0a 8331i bk15: 0a 8332i 
dram_util_bins: 0 0 0 0 0 0 0 0 0 0
dram_eff_bins: 0 0 0 0 0 0 0 0 0 0
mrqq: max=1 avg=0.00216035
Memory Partition 3: 
Cache L2_bank_006:
MSHR contents

Cache L2_bank_007:
MSHR contents

In Dram Latency Queue (total = 0): 
DRAM[3]: 16 bks, busW=4 BL=8 CL=12, tRRD=2 tCCD=6, tRCD=12 tRAS=28 tRP=12 tRC=40
n_cmd=8332 n_nop=8313 n_act=2 n_pre=0 n_req=9 n_rd=16 n_write=1 bw_util=0.004081
n_activity=119 dram_eff=0.2857
bk0: 0a 8331i bk1: 0a 8332i bk2: 0a 8332i bk3: 0a 8332i bk4: 0a 8332i bk5: 0a 8333i bk6: 0a 8333i bk7: 0a 8333i bk8: 0a 8333i bk9: 0a 8333i bk10: 8a 8293i bk11: 8a 8295i bk12: 0a 8331i bk13: 0a 8331i bk14: 0a 8331i bk15: 0a 8331i 
dram_util_bins: 0 0 0 0 0 0 0 0 0 0
dram_eff_bins: 0 0 0 0 0 0 0 0 0 0
mrqq: max=1 avg=0.000240038
Memory Partition 4: 
Cache L2_bank_008:
MSHR contents

Cache L2_bank_009:
MSHR contents

In Dram Latency Queue (total = 0): 
DRAM[4]: 16 bks, busW=4 BL=8 CL=12, tRRD=2 tCCD=6, tRCD=12 tRAS=28 tRP=12 tRC=40
n_cmd=8332 n_nop=8299 n_act=3 n_pre=0 n_req=17 n_rd=26 n_write=4 bw_util=0.007201
n_activity=238 dram_eff=0.2521
bk0: 0a 8332i bk1: 0a 8333i bk2: 0a 8333i bk3: 0a 8333i bk4: 0a 8333i bk5: 0a 8333i bk6: 2a 8316i bk7: 0a 8332i bk8: 0a 8332i bk9: 0a 8333i bk10: 14a 8279i bk11: 10a 8264i bk12: 0a 8329i bk13: 0a 8330i bk14: 0a 8331i bk15: 0a 8331i 
dram_util_bins: 0 0 0 0 0 0 0 0 0 0
dram_eff_bins: 0 0 0 0 0 0 0 0 0 0
mrqq: max=1 avg=0.00156025
Memory Partition 5: 
Cache L2_bank_010:
MSHR contents

Cache L2_bank_011:
MSHR contents

In Dram Latency Queue (total = 0): 
DRAM[5]: 16 bks, busW=4 BL=8 CL=12, tRRD=2 tCCD=6, tRCD=12 tRAS=28 tRP=12 tRC=40
n_cmd=8332 n_nop=8301 n_act=2 n_pre=0 n_req=17 n_rd=24 n_write=5 bw_util=0.006961
n_activity=217 dram_eff=0.2673
bk0: 0a 8331i bk1: 0a 8332i bk2: 0a 8332i bk3: 0a 8332i bk4: 0a 8332i bk5: 0a 8332i bk6: 0a 8332i bk7: 0a 8333i bk8: 0a 8333i bk9: 0a 8334i bk10: 18a 8230i bk11: 6a 8286i bk12: 0a 8330i bk13: 0a 8331i bk14: 0a 8331i bk15: 0a 8331i 
dram_util_bins: 0 0 0 0 0 0 0 0 0 0
dram_eff_bins: 0 0 0 0 0 0 0 0 0 0
mrqq: max=1 avg=0.00240038

========= L2 cache stats =========
L2_cache_bank[0]: Access = 28, Miss = 7, Miss_rate = 0.250, Pending_hits = 9, Reservation_fails = 342
L2_cache_bank[1]: Access = 6, Miss = 6, Miss_rate = 1.000, Pending_hits = 0, Reservation_fails = 0
L2_cache_bank[2]: Access = 15, Miss = 8, Miss_rate = 0.533, Pending_hits = 3, Reservation_fails = 100
L2_cache_bank[3]: Access = 6, Miss = 6, Miss_rate = 1.000, Pending_hits = 0, Reservation_fails = 0
L2_cache_bank[4]: Access = 5, Miss = 5, Miss_rate = 1.000, Pending_hits = 0, Reservation_fails = 0
L2_cache_bank[5]: Access = 5, Miss = 5, Miss_rate = 1.000, Pending_hits = 0, Reservation_fails = 0
L2_cache_bank[6]: Access = 4, Miss = 4, Miss_rate = 1.000, Pending_hits = 0, Reservation_fails = 0
L2_cache_bank[7]: Access = 4, Miss = 4, Miss_rate = 1.000, Pending_hits = 0, Reservation_fails = 0
L2_cache_bank[8]: Access = 9, Miss = 8, Miss_rate = 0.889, Pending_hits = 0, Reservation_fails = 0
L2_cache_bank[9]: Access = 5, Miss = 5, Miss_rate = 1.000, Pending_hits = 0, Reservation_fails = 0
L2_cache_bank[10]: Access = 9, Miss = 9, Miss_rate = 1.000, Pending_hits = 0, Reservation_fails = 0
L2_cache_bank[11]: Access = 3, Miss = 3, Miss_rate = 1.000, Pending_hits = 0, Reservation_fails = 0
L2_total_cache_accesses = 99
L2_total_cache_misses = 70
L2_total_cache_miss_rate = 0.7071
L2_total_cache_pending_hits = 12
L2_total_cache_reservation_fails = 442
L2_total_cache_breakdown:
	L2_cache_stats_breakdown[GLOBAL_ACC_R][MISS] = 45
	L2_cache_stats_breakdown[CONST_ACC_R][HIT] = 4
	L2_cache_stats_breakdown[CONST_ACC_R][HIT_RESERVED] = 3
	L2_cache_stats_breakdown[CONST_ACC_R][MISS] = 1
	L2_cache_stats_breakdown[CONST_ACC_R][RESERVATION_FAIL] = 109
	L2_cache_stats_breakdown[GLOBAL_ACC_W][HIT] = 1
	L2_cache_stats_breakdown[GLOBAL_ACC_W][MISS] = 20
	L2_cache_stats_breakdown[INST_ACC_R][HIT] = 12
	L2_cache_stats_breakdown[INST_ACC_R][HIT_RESERVED] = 9
	L2_cache_stats_breakdown[INST_ACC_R][MISS] = 4
	L2_cache_stats_breakdown[INST_ACC_R][RESERVATION_FAIL] = 333
L2_cache_data_port_util = 0.001
L2_cache_fill_port_util = 0.004

icnt_total_pkts_mem_to_simt=395
icnt_total_pkts_simt_to_mem=120
LD_mem_lat_dist  0 0 0 0 0 0 0 0 0 0 0 0 0 0 0 0 0 0 0 0 0 0 0 0 0 0 0
ST_mem_lat_dist  0 0 0 0 0 0 0 0 0 0 0 0 0 0 0 0 0 0 0 0 0 0 0 0 0 0 0
----------------------------Interconnect-DETAILS--------------------------------
Class 0:
Packet latency average = 9.34343
	minimum = 6
	maximum = 21
Network latency average = 8.67172
	minimum = 6
	maximum = 20
Slowest packet = 7
Flit latency average = 7.40971
	minimum = 6
	maximum = 20
Slowest flit = 7
Fragmentation average = 0
	minimum = 0
	maximum = 0
Injected packet rate average = 0.00116162
	minimum = 0 (at node 0)
	maximum = 0.00681134 (at node 1)
Accepted packet rate average = 0.00116162
	minimum = 0 (at node 0)
	maximum = 0.00681134 (at node 1)
Injected flit rate average = 0.0030214
	minimum = 0 (at node 0)
	maximum = 0.0190084 (at node 15)
Accepted flit rate average= 0.0030214
	minimum = 0 (at node 0)
	maximum = 0.020434 (at node 1)
Injected packet length average = 2.60101
Accepted packet length average = 2.60101
Total in-flight flits = 0 (0 measured)
====== Overall Traffic Statistics ======
====== Traffic class 0 ======
Packet latency average = 9.34343 (1 samples)
	minimum = 6 (1 samples)
	maximum = 21 (1 samples)
Network latency average = 8.67172 (1 samples)
	minimum = 6 (1 samples)
	maximum = 20 (1 samples)
Flit latency average = 7.40971 (1 samples)
	minimum = 6 (1 samples)
	maximum = 20 (1 samples)
Fragmentation average = 0 (1 samples)
	minimum = 0 (1 samples)
	maximum = 0 (1 samples)
Injected packet rate average = 0.00116162 (1 samples)
	minimum = 0 (1 samples)
	maximum = 0.00681134 (1 samples)
Accepted packet rate average = 0.00116162 (1 samples)
	minimum = 0 (1 samples)
	maximum = 0.00681134 (1 samples)
Injected flit rate average = 0.0030214 (1 samples)
	minimum = 0 (1 samples)
	maximum = 0.0190084 (1 samples)
Accepted flit rate average = 0.0030214 (1 samples)
	minimum = 0 (1 samples)
	maximum = 0.020434 (1 samples)
Injected packet size average = 2.60101 (1 samples)
Accepted packet size average = 2.60101 (1 samples)
Hops average = 1 (1 samples)
----------------------------END-of-Interconnect-DETAILS-------------------------


gpgpu_simulation_time = 0 days, 0 hrs, 0 min, 1 sec (1 sec)
gpgpu_simulation_rate = 110830 (inst/sec)
gpgpu_simulation_rate = 6313 (cycle/sec)

GPGPU-Sim PTX: cudaLaunch for 0x0x4016a5 (mode=performance simulation) on stream 0
GPGPU-Sim PTX: pushing kernel '_Z7Kernel2PbS_S_S_i' to stream 0, gridDim= (8,1,1) blockDim = (512,1,1) 
kernel '_Z7Kernel2PbS_S_S_i' transfer to GPU hardware scheduler
GPGPU-Sim uArch: Shader 9 bind to kernel 2 '_Z7Kernel2PbS_S_S_i'
GPGPU-Sim uArch: CTA/core = 3, limited by: threads
GPGPU-Sim uArch: core:  9, cta: 0 initialized @(1,6313)
GPGPU-Sim uArch: Shader 10 bind to kernel 2 '_Z7Kernel2PbS_S_S_i'
GPGPU-Sim uArch: core: 10, cta: 0 initialized @(1,6313)
GPGPU-Sim uArch: Shader 11 bind to kernel 2 '_Z7Kernel2PbS_S_S_i'
GPGPU-Sim uArch: core: 11, cta: 0 initialized @(1,6313)
GPGPU-Sim uArch: Shader 12 bind to kernel 2 '_Z7Kernel2PbS_S_S_i'
GPGPU-Sim uArch: core: 12, cta: 0 initialized @(1,6313)
GPGPU-Sim uArch: Shader 13 bind to kernel 2 '_Z7Kernel2PbS_S_S_i'
GPGPU-Sim uArch: core: 13, cta: 0 initialized @(1,6313)
GPGPU-Sim uArch: Shader 14 bind to kernel 2 '_Z7Kernel2PbS_S_S_i'
GPGPU-Sim uArch: core: 14, cta: 0 initialized @(1,6313)
GPGPU-Sim uArch: Shader 0 bind to kernel 2 '_Z7Kernel2PbS_S_S_i'
GPGPU-Sim uArch: core:  0, cta: 0 initialized @(1,6313)
GPGPU-Sim uArch: Shader 1 bind to kernel 2 '_Z7Kernel2PbS_S_S_i'
GPGPU-Sim uArch: core:  1, cta: 0 initialized @(1,6313)
Branch Status: 2
Branch- 0: 2, 2, 2, 2, 2, 2, 2, 2, 2, 0, 2, 2, 2, 2, 2, 2, 2, 2, 2, 2, 2, 2, 2, 2, 2, 2, 2, 2, 2, 2, 2, 2
Branch Status: 2
Branch- 0: 2, 2, 2, 2, 0, 2, 2, 2, 2, 2, 2, 2, 2, 2, 2, 2, 2, 2, 2, 2, 2, 2, 2, 2, 2, 2, 2, 2, 2, 2, 2, 2
Branch Status: 2
Branch- 0: 2, 2, 2, 2, 2, 2, 2, 2, 2, 2, 2, 2, 2, 2, 2, 2, 2, 2, 2, 2, 2, 2, 2, 2, 2, 2, 2, 2, 0, 2, 2, 2
Branch Status: 2
Branch- 0: 2, 2, 2, 2, 2, 2, 2, 0, 2, 2, 2, 2, 2, 2, 2, 2, 2, 2, 2, 2, 2, 2, 2, 2, 2, 2, 2, 2, 2, 2, 2, 2
Branch Status: 2
Branch- 0: 2, 2, 2, 0, 2, 2, 2, 2, 2, 2, 2, 2, 2, 2, 2, 2, 2, 2, 2, 2, 2, 2, 2, 2, 2, 2, 2, 2, 2, 2, 2, 2
Branch Status: 2
Branch- 0: 2, 2, 2, 2, 2, 2, 2, 2, 2, 2, 2, 2, 2, 2, 2, 2, 2, 0, 2, 2, 2, 2, 2, 2, 2, 2, 2, 2, 2, 2, 2, 2
Branch Status: 2
Branch- 0: 2, 2, 2, 0, 2, 2, 2, 2, 2, 2, 2, 2, 2, 2, 2, 2, 2, 2, 2, 2, 2, 2, 2, 2, 2, 2, 2, 2, 2, 2, 2, 2
GPGPU-Sim PTX: 200000 instructions simulated : ctaid=(0,0,0) tid=(368,0,0)
Branch Status: 2
Branch- 0: 2, 2, 2, 2, 2, 2, 2, 2, 2, 2, 2, 2, 2, 2, 2, 2, 2, 2, 2, 2, 2, 2, 2, 2, 2, 2, 0, 2, 2, 2, 2, 2
Branch Status: 2
Branch- 0: 2, 2, 2, 2, 2, 2, 2, 2, 2, 2, 2, 2, 2, 2, 2, 2, 2, 2, 2, 2, 2, 2, 2, 2, 0, 2, 2, 2, 2, 2, 2, 2
Branch Status: 2
Branch- 0: 2, 2, 2, 2, 2, 2, 2, 2, 2, 2, 2, 0, 2, 2, 2, 2, 2, 2, 2, 2, 2, 2, 2, 2, 2, 2, 2, 2, 2, 2, 2, 2
GPGPU-Sim uArch: Shader 14 finished CTA #0 (789,6313), 0 CTAs running
GPGPU-Sim uArch: Shader 14 empty (release kernel 2 '_Z7Kernel2PbS_S_S_i').


BRANCH_STATS_PRINT: For Shader_id=14, Kernel(uid=2, name: '_Z7Kernel2PbS_S_S_i').
------------------------------------------------------------------------------------------------
          PC         TYPE       TARGET  INSTANCES        TAKEN       OCCUPANCY    DYN_COUNT
------------------------------------------------------------------------------------------------
         268    extrinsic          2f0        512     0.000000        0.000000           16
         2a8    intrinsic          2f0        512     1.000000        1.000000           16


GPGPU-Sim uArch: Shader 0 finished CTA #0 (794,6313), 0 CTAs running
GPGPU-Sim uArch: Shader 0 empty (release kernel 2 '_Z7Kernel2PbS_S_S_i').


BRANCH_STATS_PRINT: For Shader_id=0, Kernel(uid=2, name: '_Z7Kernel2PbS_S_S_i').
------------------------------------------------------------------------------------------------
          PC         TYPE       TARGET  INSTANCES        TAKEN       OCCUPANCY    DYN_COUNT
------------------------------------------------------------------------------------------------
         268    extrinsic          2f0        512     0.000000        0.000000           16
         2a8    intrinsic          2f0        512     1.000000        1.000000           16


GPGPU-Sim uArch: Shader 10 finished CTA #0 (956,6313), 0 CTAs running
GPGPU-Sim uArch: Shader 10 empty (release kernel 2 '_Z7Kernel2PbS_S_S_i').


BRANCH_STATS_PRINT: For Shader_id=10, Kernel(uid=2, name: '_Z7Kernel2PbS_S_S_i').
------------------------------------------------------------------------------------------------
          PC         TYPE       TARGET  INSTANCES        TAKEN       OCCUPANCY    DYN_COUNT
------------------------------------------------------------------------------------------------
         268    extrinsic          2f0        512     0.000000        0.000000           16
         2a8    intrinsic          2f0        512     0.998047        0.998047           16


GPGPU-Sim uArch: Shader 12 finished CTA #0 (973,6313), 0 CTAs running
GPGPU-Sim uArch: Shader 12 empty (release kernel 2 '_Z7Kernel2PbS_S_S_i').


BRANCH_STATS_PRINT: For Shader_id=12, Kernel(uid=2, name: '_Z7Kernel2PbS_S_S_i').
------------------------------------------------------------------------------------------------
          PC         TYPE       TARGET  INSTANCES        TAKEN       OCCUPANCY    DYN_COUNT
------------------------------------------------------------------------------------------------
         268    extrinsic          2f0        512     0.000000        0.000000           16
         2a8    intrinsic          2f0        512     0.998047        0.998047           16


GPGPU-Sim uArch: Shader 9 finished CTA #0 (979,6313), 0 CTAs running
GPGPU-Sim uArch: Shader 9 empty (release kernel 2 '_Z7Kernel2PbS_S_S_i').


BRANCH_STATS_PRINT: For Shader_id=9, Kernel(uid=2, name: '_Z7Kernel2PbS_S_S_i').
------------------------------------------------------------------------------------------------
          PC         TYPE       TARGET  INSTANCES        TAKEN       OCCUPANCY    DYN_COUNT
------------------------------------------------------------------------------------------------
         268    extrinsic          2f0        512     0.000000        0.000000           16
         2a8    intrinsic          2f0        512     0.998047        0.998047           16


GPGPU-Sim uArch: Shader 11 finished CTA #0 (983,6313), 0 CTAs running
GPGPU-Sim uArch: Shader 11 empty (release kernel 2 '_Z7Kernel2PbS_S_S_i').


BRANCH_STATS_PRINT: For Shader_id=11, Kernel(uid=2, name: '_Z7Kernel2PbS_S_S_i').
------------------------------------------------------------------------------------------------
          PC         TYPE       TARGET  INSTANCES        TAKEN       OCCUPANCY    DYN_COUNT
------------------------------------------------------------------------------------------------
         268    extrinsic          2f0        512     0.000000        0.000000           16
         2a8    intrinsic          2f0        512     0.996094        0.996094           16


GPGPU-Sim uArch: Shader 13 finished CTA #0 (989,6313), 0 CTAs running
GPGPU-Sim uArch: Shader 13 empty (release kernel 2 '_Z7Kernel2PbS_S_S_i').


BRANCH_STATS_PRINT: For Shader_id=13, Kernel(uid=2, name: '_Z7Kernel2PbS_S_S_i').
------------------------------------------------------------------------------------------------
          PC         TYPE       TARGET  INSTANCES        TAKEN       OCCUPANCY    DYN_COUNT
------------------------------------------------------------------------------------------------
         268    extrinsic          2f0        512     0.000000        0.000000           16
         2a8    intrinsic          2f0        512     0.994141        0.994141           16


GPGPU-Sim uArch: Shader 1 finished CTA #0 (991,6313), 0 CTAs running
GPGPU-Sim uArch: Shader 1 empty (release kernel 2 '_Z7Kernel2PbS_S_S_i').


BRANCH_STATS_PRINT: For Shader_id=1, Kernel(uid=2, name: '_Z7Kernel2PbS_S_S_i').
------------------------------------------------------------------------------------------------
          PC         TYPE       TARGET  INSTANCES        TAKEN       OCCUPANCY    DYN_COUNT
------------------------------------------------------------------------------------------------
         268    extrinsic          2f0        512     0.000000        0.000000           16
         2a8    intrinsic          2f0        512     0.996094        0.996094           16


GPGPU-Sim uArch: GPU detected kernel '_Z7Kernel2PbS_S_S_i' finished on shader 1.


BRANCH_STATS_PRINT: For Kernel(uid=2, name: '_Z7Kernel2PbS_S_S_i').
------------------------------------------------------------------------------------------------
          PC         TYPE       TARGET  INSTANCES        TAKEN       OCCUPANCY    DYN_COUNT
------------------------------------------------------------------------------------------------
         268    extrinsic          2f0       4096     0.000000        0.000000          128
         2a8    intrinsic          2f0       4096     0.997559        0.997559          128


Thread stats:
      ACTIVE,    EXTRINSIC,    INTRINSIC

       98384,            0,         2480

kernel_name = _Z7Kernel2PbS_S_S_i 
kernel_launch_uid = 2 
gpu_sim_cycle = 992
gpu_sim_insn = 94278
gpu_ipc =      95.0383
gpu_tot_sim_cycle = 7305
gpu_tot_sim_insn = 205108
gpu_tot_ipc =      28.0778
gpu_tot_issued_cta = 0
gpu_stall_dramfull = 0
gpu_stall_icnt2sh    = 116
gpu_total_sim_rate=205108

========= Core cache stats =========
L1I_cache:
	L1I_total_cache_accesses = 4500
	L1I_total_cache_misses = 752
	L1I_total_cache_miss_rate = 0.1671
	L1I_total_cache_pending_hits = 0
	L1I_total_cache_reservation_fails = 0
L1D_cache:
	L1D_cache_core[0]: Access = 16, Miss = 4, Miss_rate = 0.250, Pending_hits = 12, Reservation_fails = 0
	L1D_cache_core[1]: Access = 113, Miss = 45, Miss_rate = 0.398, Pending_hits = 24, Reservation_fails = 0
	L1D_cache_core[2]: Access = 16, Miss = 4, Miss_rate = 0.250, Pending_hits = 12, Reservation_fails = 0
	L1D_cache_core[3]: Access = 16, Miss = 4, Miss_rate = 0.250, Pending_hits = 12, Reservation_fails = 0
	L1D_cache_core[4]: Access = 16, Miss = 4, Miss_rate = 0.250, Pending_hits = 12, Reservation_fails = 0
	L1D_cache_core[5]: Access = 16, Miss = 4, Miss_rate = 0.250, Pending_hits = 12, Reservation_fails = 0
	L1D_cache_core[6]: Access = 16, Miss = 4, Miss_rate = 0.250, Pending_hits = 12, Reservation_fails = 0
	L1D_cache_core[7]: Access = 16, Miss = 4, Miss_rate = 0.250, Pending_hits = 12, Reservation_fails = 0
	L1D_cache_core[8]: Access = 16, Miss = 4, Miss_rate = 0.250, Pending_hits = 12, Reservation_fails = 0
	L1D_cache_core[9]: Access = 20, Miss = 7, Miss_rate = 0.350, Pending_hits = 12, Reservation_fails = 0
	L1D_cache_core[10]: Access = 20, Miss = 7, Miss_rate = 0.350, Pending_hits = 12, Reservation_fails = 0
	L1D_cache_core[11]: Access = 24, Miss = 10, Miss_rate = 0.417, Pending_hits = 12, Reservation_fails = 0
	L1D_cache_core[12]: Access = 20, Miss = 7, Miss_rate = 0.350, Pending_hits = 12, Reservation_fails = 0
	L1D_cache_core[13]: Access = 28, Miss = 13, Miss_rate = 0.464, Pending_hits = 12, Reservation_fails = 0
	L1D_cache_core[14]: Access = 16, Miss = 4, Miss_rate = 0.250, Pending_hits = 12, Reservation_fails = 0
	L1D_total_cache_accesses = 369
	L1D_total_cache_misses = 125
	L1D_total_cache_miss_rate = 0.3388
	L1D_total_cache_pending_hits = 192
	L1D_total_cache_reservation_fails = 0
	L1D_cache_data_port_util = 0.002
	L1D_cache_fill_port_util = 0.003
L1C_cache:
	L1C_total_cache_accesses = 1536
	L1C_total_cache_misses = 480
	L1C_total_cache_miss_rate = 0.3125
	L1C_total_cache_pending_hits = 0
	L1C_total_cache_reservation_fails = 1880
L1T_cache:
	L1T_total_cache_accesses = 0
	L1T_total_cache_misses = 0
	L1T_total_cache_pending_hits = 0
	L1T_total_cache_reservation_fails = 0

Total_core_cache_stats:
	Total_core_cache_stats_breakdown[GLOBAL_ACC_R][HIT] = 39
	Total_core_cache_stats_breakdown[GLOBAL_ACC_R][HIT_RESERVED] = 192
	Total_core_cache_stats_breakdown[GLOBAL_ACC_R][MISS] = 77
	Total_core_cache_stats_breakdown[CONST_ACC_R][HIT] = 1056
	Total_core_cache_stats_breakdown[CONST_ACC_R][MISS] = 480
	Total_core_cache_stats_breakdown[CONST_ACC_R][RESERVATION_FAIL] = 1880
	Total_core_cache_stats_breakdown[GLOBAL_ACC_W][HIT] = 13
	Total_core_cache_stats_breakdown[GLOBAL_ACC_W][MISS] = 48
	Total_core_cache_stats_breakdown[INST_ACC_R][HIT] = 3748
	Total_core_cache_stats_breakdown[INST_ACC_R][MISS] = 752
Shader 0 warp_id issue ditsribution:
warp_id:
0, 1, 2, 3, 4, 5, 6, 7, 8, 9, 10, 11, 12, 13, 14, 15, 
distro:
24, 24, 24, 24, 24, 24, 24, 24, 24, 24, 24, 24, 24, 24, 24, 24, 
gpgpu_n_tot_thrd_icount = 223584
gpgpu_n_tot_w_icount = 6987
gpgpu_n_stall_shd_mem = 1880
gpgpu_n_mem_read_local = 0
gpgpu_n_mem_write_local = 0
gpgpu_n_mem_read_global = 77
gpgpu_n_mem_write_global = 61
gpgpu_n_mem_texture = 0
gpgpu_n_mem_const = 15
gpgpu_n_load_insn  = 8244
gpgpu_n_store_insn = 61
gpgpu_n_shmem_insn = 0
gpgpu_n_tex_insn = 0
gpgpu_n_const_mem_insn = 0
gpgpu_n_param_mem_insn = 49152
gpgpu_n_shmem_bkconflict = 0
gpgpu_n_cache_bkconflict = 0
gpgpu_n_intrawarp_mshr_merge = 0
gpgpu_n_cmem_portconflict = 1880
gpgpu_stall_shd_mem[c_mem][bk_conf] = 1880
gpgpu_stall_shd_mem[c_mem][mshr_rc] = 0
gpgpu_stall_shd_mem[c_mem][icnt_rc] = 0
gpgpu_stall_shd_mem[c_mem][data_port_stall] = 0
gpgpu_stall_shd_mem[t_mem][mshr_rc] = 0
gpgpu_stall_shd_mem[t_mem][icnt_rc] = 0
gpgpu_stall_shd_mem[t_mem][data_port_stall] = 0
gpgpu_stall_shd_mem[s_mem][bk_conf] = 0
gpgpu_stall_shd_mem[gl_mem][bk_conf] = 0
gpgpu_stall_shd_mem[gl_mem][coal_stall] = 0
gpgpu_stall_shd_mem[gl_mem][data_port_stall] = 0
gpgpu_stall_shd_mem[g_mem_ld][mshr_rc] = 0
gpgpu_stall_shd_mem[g_mem_ld][icnt_rc] = 0
gpgpu_stall_shd_mem[g_mem_ld][wb_icnt_rc] = 0
gpgpu_stall_shd_mem[g_mem_ld][wb_rsrv_fail] = 0
gpgpu_stall_shd_mem[g_mem_st][mshr_rc] = 0
gpgpu_stall_shd_mem[g_mem_st][icnt_rc] = 0
gpgpu_stall_shd_mem[g_mem_st][wb_icnt_rc] = 0
gpgpu_stall_shd_mem[g_mem_st][wb_rsrv_fail] = 0
gpgpu_stall_shd_mem[l_mem_ld][mshr_rc] = 0
gpgpu_stall_shd_mem[l_mem_ld][icnt_rc] = 0
gpgpu_stall_shd_mem[l_mem_ld][wb_icnt_rc] = 0
gpgpu_stall_shd_mem[l_mem_ld][wb_rsrv_fail] = 0
gpgpu_stall_shd_mem[l_mem_st][mshr_rc] = 0
gpgpu_stall_shd_mem[l_mem_st][icnt_rc] = 0
gpgpu_stall_shd_mem[l_mem_ld][wb_icnt_rc] = 0
gpgpu_stall_shd_mem[l_mem_ld][wb_rsrv_fail] = 0
gpu_reg_bank_conflict_stalls = 0
Warp Occupancy Distribution:
Stall:4387	W0_Idle:27507	W0_Scoreboard:9985	W1:331	W2:0	W3:0	W4:0	W5:0	W6:0	W7:0	W8:0	W9:0	W10:0	W11:0	W12:0	W13:0	W14:0	W15:0	W16:0	W17:0	W18:0	W19:0	W20:0	W21:0	W22:0	W23:0	W24:0	W25:0	W26:0	W27:0	W28:0	W29:0	W30:0	W31:0	W32:6656
traffic_breakdown_coretomem[CONST_ACC_R] = 120 {8:15,}
traffic_breakdown_coretomem[GLOBAL_ACC_R] = 616 {8:77,}
traffic_breakdown_coretomem[GLOBAL_ACC_W] = 2440 {40:61,}
traffic_breakdown_coretomem[INST_ACC_R] = 384 {8:48,}
traffic_breakdown_memtocore[CONST_ACC_R] = 1080 {72:15,}
traffic_breakdown_memtocore[GLOBAL_ACC_R] = 10472 {136:77,}
traffic_breakdown_memtocore[GLOBAL_ACC_W] = 488 {8:61,}
traffic_breakdown_memtocore[INST_ACC_R] = 6528 {136:48,}
maxmrqlatency = 15 
maxdqlatency = 0 
maxmflatency = 337 
averagemflatency = 248 
max_icnt2mem_latency = 22 
max_icnt2sh_latency = 7304 
mrq_lat_table:106 	1 	7 	5 	0 	0 	0 	0 	0 	0 	0 	0 	0 	0 	0 	0 	0 	0 	0 	0 	0 	0 	0 	0 	0 	0 	0 	0 	0 	0 	0 	0 	
dq_lat_table:0 	0 	0 	0 	0 	0 	0 	0 	0 	0 	0 	0 	0 	0 	0 	0 	0 	0 	0 	0 	0 	0 	0 	0 	0 	0 	0 	0 	0 	0 	0 	0 	
mf_lat_table:0 	0 	0 	0 	0 	0 	0 	76 	77 	0 	0 	0 	0 	0 	0 	0 	0 	0 	0 	0 	0 	0 	0 	0 	0 	0 	0 	0 	0 	0 	0 	0 	
icnt2mem_lat_table:0 	0 	0 	188 	13 	0 	0 	0 	0 	0 	0 	0 	0 	0 	0 	0 	0 	0 	0 	0 	0 	0 	0 	0 	
icnt2sh_lat_table:0 	0 	0 	84 	8 	0 	0 	0 	0 	0 	1 	8 	52 	0 	0 	0 	0 	0 	0 	0 	0 	0 	0 	0 	
mf_lat_pw_table:0 	0 	0 	0 	0 	0 	0 	9 	4 	0 	0 	0 	0 	0 	0 	0 	0 	0 	0 	0 	0 	0 	0 	0 	0 	0 	0 	0 	0 	0 	0 	0 	
maximum concurrent accesses to same row:
dram[0]:         1         0         0         0         0         0         0         0         0         0         0         0         0         0         0         0 
dram[1]:         0         0         0         0         0         0         0         0         0         0         0         0         0         0         0         0 
dram[2]:         0         0         0         0         0         0         0         0         0         0         0         0         0         0         0         0 
dram[3]:         0         0         0         0         0         0         0         0         0         0         0         0         0         0         0         0 
dram[4]:         0         0         0         0         0         0         0         0         0         0         0         0         0         0         0         0 
dram[5]:         0         0         0         0         0         0         0         0         0         0         0         0         0         0         0         0 
maximum service time to same row:
dram[0]:       316         0         0         0         0         0         0         0         0         0      1159      1146         0         0         0         0 
dram[1]:      1441         0         0         0         0         0         0         0         0         0      1171      1154         0         0         0         0 
dram[2]:       249         0         0         0         0      1491         0         0         0         0      1169      1176         0         0         0         0 
dram[3]:         0         0         0         0         0         0         0         0         0         0      1179      1185         0         0         0         0 
dram[4]:         0         0         0         0         0         0      1901         0         0         0      1163      1151         0         0         0         0 
dram[5]:         0         0         0         0         0         0         0         0         0         0      1172      1160         0         0         0         0 
average row accesses per activate:
dram[0]:  1.000000      -nan      -nan      -nan      -nan      -nan      -nan      -nan      -nan      -nan  6.000000  9.000000      -nan      -nan      -nan      -nan 
dram[1]:  2.000000      -nan      -nan      -nan      -nan      -nan      -nan      -nan      -nan      -nan 11.000000 10.000000      -nan      -nan      -nan      -nan 
dram[2]:  2.000000      -nan      -nan      -nan      -nan  1.000000      -nan      -nan      -nan      -nan  7.000000 13.000000      -nan      -nan      -nan      -nan 
dram[3]:      -nan      -nan      -nan      -nan      -nan      -nan      -nan      -nan      -nan      -nan  7.000000  8.000000      -nan      -nan      -nan      -nan 
dram[4]:      -nan      -nan      -nan      -nan      -nan      -nan  1.000000      -nan      -nan      -nan  9.000000 10.000000      -nan      -nan      -nan      -nan 
dram[5]:      -nan      -nan      -nan      -nan      -nan      -nan      -nan      -nan      -nan      -nan 13.000000  7.000000      -nan      -nan      -nan      -nan 
average row locality = 119/19 = 6.263158
number of total memory accesses made:
dram[0]:         0         0         0         0         0         0         0         0         0         0         0         0         0         0         0         0 
dram[1]:         0         0         0         0         0         0         0         0         0         0         0         0         0         0         0         0 
dram[2]:         0         0         0         0         0         0         0         0         0         0         0         0         0         0         0         0 
dram[3]:         0         0         0         0         0         0         0         0         0         0         0         0         0         0         0         0 
dram[4]:         0         0         0         0         0         0         0         0         0         0         0         0         0         0         0         0 
dram[5]:         0         0         0         0         0         0         0         0         0         0         0         0         0         0         0         0 
total accesses: 0
min_bank_accesses = 0!
min_chip_accesses = 0!
number of total read accesses:
dram[0]:         3         0         0         0         0         0         0         0         0         0         5         8         0         0         0         0 
dram[1]:         2         0         0         0         0         0         0         0         0         0         7         8         0         0         0         0 
dram[2]:         2         0         0         0         0         1         0         0         0         0         6         8         0         0         0         0 
dram[3]:         0         0         0         0         0         0         0         0         0         0         6         8         0         0         0         0 
dram[4]:         0         0         0         0         0         0         1         0         0         0         8         7         0         0         0         0 
dram[5]:         0         0         0         0         0         0         0         0         0         0         9         6         0         0         0         0 
total reads: 95
min_bank_accesses = 0!
chip skew: 17/14 = 1.21
number of total write accesses:
dram[0]:         0         0         0         0         0         0         0         0         0         0         1         1         0         0         0         0 
dram[1]:         0         0         0         0         0         0         0         0         0         0         4         2         0         0         0         0 
dram[2]:         0         0         0         0         0         0         0         0         0         0         1         5         0         0         0         0 
dram[3]:         0         0         0         0         0         0         0         0         0         0         1         0         0         0         0         0 
dram[4]:         0         0         0         0         0         0         0         0         0         0         1         3         0         0         0         0 
dram[5]:         0         0         0         0         0         0         0         0         0         0         4         1         0         0         0         0 
total reads: 24
min_bank_accesses = 0!
chip skew: 6/1 = 6.00
average mf latency per bank:
dram[0]:       1041    none      none      none      none      none      none      none      none      none         311       277    none      none      none      none  
dram[1]:          0    none      none      none      none      none      none      none      none      none         214       220    none      none      none      none  
dram[2]:          0    none      none      none      none         268    none      none      none      none         328       384    none      none      none      none  
dram[3]:     none      none      none      none      none      none      none      none      none      none         242       315    none      none      none      none  
dram[4]:     none      none      none      none      none      none         267    none      none      none         310       249    none      none      none      none  
dram[5]:     none      none      none      none      none      none      none      none      none      none         233       263    none      none      none      none  
maximum mf latency per bank:
dram[0]:        278         0         0         0         0         0         0         0         0         0       268       268         0         0         0         0
dram[1]:          0         0         0         0         0         0         0         0         0         0       268       272         0         0         0         0
dram[2]:          0         0         0         0         0       268         0         0         0         0       337       271         0         0         0         0
dram[3]:          0         0         0         0         0         0         0         0         0         0       272       275         0         0         0         0
dram[4]:          0         0         0         0         0         0       267         0         0         0       268       267         0         0         0         0
dram[5]:          0         0         0         0         0         0         0         0         0         0       272       271         0         0         0         0
Memory Partition 0: 
Cache L2_bank_000:
MSHR contents

Cache L2_bank_001:
MSHR contents

In Dram Latency Queue (total = 0): 
DRAM[0]: 16 bks, busW=4 BL=8 CL=12, tRRD=2 tCCD=6, tRCD=12 tRAS=28 tRP=12 tRC=40
n_cmd=9641 n_nop=9600 n_act=5 n_pre=2 n_req=18 n_rd=32 n_write=2 bw_util=0.007053
n_activity=340 dram_eff=0.2
bk0: 6a 9568i bk1: 0a 9638i bk2: 0a 9641i bk3: 0a 9641i bk4: 0a 9641i bk5: 0a 9641i bk6: 0a 9642i bk7: 0a 9642i bk8: 0a 9643i bk9: 0a 9643i bk10: 10a 9597i bk11: 16a 9583i bk12: 0a 9639i bk13: 0a 9639i bk14: 0a 9640i bk15: 0a 9640i 
dram_util_bins: 0 0 0 0 0 0 0 0 0 0
dram_eff_bins: 0 0 0 0 0 0 0 0 0 0
mrqq: max=1 avg=0.00145213
Memory Partition 1: 
Cache L2_bank_002:
MSHR contents

Cache L2_bank_003:
MSHR contents

In Dram Latency Queue (total = 0): 
DRAM[1]: 16 bks, busW=4 BL=8 CL=12, tRRD=2 tCCD=6, tRCD=12 tRAS=28 tRP=12 tRC=40
n_cmd=9641 n_nop=9598 n_act=3 n_pre=0 n_req=23 n_rd=34 n_write=6 bw_util=0.008298
n_activity=344 dram_eff=0.2326
bk0: 4a 9620i bk1: 0a 9640i bk2: 0a 9640i bk3: 0a 9641i bk4: 0a 9641i bk5: 0a 9641i bk6: 0a 9641i bk7: 0a 9642i bk8: 0a 9643i bk9: 0a 9643i bk10: 14a 9557i bk11: 16a 9575i bk12: 0a 9639i bk13: 0a 9639i bk14: 0a 9640i bk15: 0a 9641i 
dram_util_bins: 0 0 0 0 0 0 0 0 0 0
dram_eff_bins: 0 0 0 0 0 0 0 0 0 0
mrqq: max=1 avg=0.000518618
Memory Partition 2: 
Cache L2_bank_004:
MSHR contents

Cache L2_bank_005:
MSHR contents

In Dram Latency Queue (total = 0): 
DRAM[2]: 16 bks, busW=4 BL=8 CL=12, tRRD=2 tCCD=6, tRCD=12 tRAS=28 tRP=12 tRC=40
n_cmd=9641 n_nop=9597 n_act=4 n_pre=0 n_req=23 n_rd=34 n_write=6 bw_util=0.008298
n_activity=336 dram_eff=0.2381
bk0: 4a 9621i bk1: 0a 9641i bk2: 0a 9641i bk3: 0a 9641i bk4: 0a 9642i bk5: 2a 9626i bk6: 0a 9641i bk7: 0a 9641i bk8: 0a 9641i bk9: 0a 9641i bk10: 12a 9591i bk11: 16a 9549i bk12: 0a 9639i bk13: 0a 9640i bk14: 0a 9641i bk15: 0a 9642i 
dram_util_bins: 0 0 0 0 0 0 0 0 0 0
dram_eff_bins: 0 0 0 0 0 0 0 0 0 0
mrqq: max=2 avg=0.00580853
Memory Partition 3: 
Cache L2_bank_006:
MSHR contents

Cache L2_bank_007:
MSHR contents

In Dram Latency Queue (total = 0): 
DRAM[3]: 16 bks, busW=4 BL=8 CL=12, tRRD=2 tCCD=6, tRCD=12 tRAS=28 tRP=12 tRC=40
n_cmd=9641 n_nop=9610 n_act=2 n_pre=0 n_req=15 n_rd=28 n_write=1 bw_util=0.006016
[...]
gpgpu_stall_shd_mem[gl_mem][data_port_stall] = 0
gpgpu_stall_shd_mem[g_mem_ld][mshr_rc] = 0
gpgpu_stall_shd_mem[g_mem_ld][icnt_rc] = 0
gpgpu_stall_shd_mem[g_mem_ld][wb_icnt_rc] = 0
gpgpu_stall_shd_mem[g_mem_ld][wb_rsrv_fail] = 0
gpgpu_stall_shd_mem[g_mem_st][mshr_rc] = 0
gpgpu_stall_shd_mem[g_mem_st][icnt_rc] = 0
gpgpu_stall_shd_mem[g_mem_st][wb_icnt_rc] = 0
gpgpu_stall_shd_mem[g_mem_st][wb_rsrv_fail] = 0
gpgpu_stall_shd_mem[l_mem_ld][mshr_rc] = 0
gpgpu_stall_shd_mem[l_mem_ld][icnt_rc] = 0
gpgpu_stall_shd_mem[l_mem_ld][wb_icnt_rc] = 0
gpgpu_stall_shd_mem[l_mem_ld][wb_rsrv_fail] = 0
gpgpu_stall_shd_mem[l_mem_st][mshr_rc] = 0
gpgpu_stall_shd_mem[l_mem_st][icnt_rc] = 0
gpgpu_stall_shd_mem[l_mem_ld][wb_icnt_rc] = 0
gpgpu_stall_shd_mem[l_mem_ld][wb_rsrv_fail] = 0
gpu_reg_bank_conflict_stalls = 0
Warp Occupancy Distribution:
Stall:90799	W0_Idle:96368	W0_Scoreboard:304129	W1:36834	W2:16731	W3:11316	W4:7396	W5:4860	W6:3500	W7:2850	W8:2686	W9:3024	W10:2785	W11:2828	W12:3518	W13:2630	W14:2653	W15:1772	W16:1500	W17:1662	W18:855	W19:434	W20:220	W21:134	W22:118	W23:0	W24:0	W25:0	W26:0	W27:0	W28:0	W29:0	W30:0	W31:0	W32:53248
traffic_breakdown_coretomem[CONST_ACC_R] = 120 {8:15,}
traffic_breakdown_coretomem[GLOBAL_ACC_R] = 104920 {8:13115,}
traffic_breakdown_coretomem[GLOBAL_ACC_W] = 722896 {40:17887,72:18,136:45,}
traffic_breakdown_coretomem[INST_ACC_R] = 712 {8:89,}
traffic_breakdown_memtocore[CONST_ACC_R] = 1080 {72:15,}
traffic_breakdown_memtocore[GLOBAL_ACC_R] = 1783640 {136:13115,}
traffic_breakdown_memtocore[GLOBAL_ACC_W] = 143600 {8:17950,}
traffic_breakdown_memtocore[INST_ACC_R] = 12104 {136:89,}
maxmrqlatency = 24 
maxdqlatency = 0 
maxmflatency = 774 
averagemflatency = 234 
max_icnt2mem_latency = 380 
max_icnt2sh_latency = 49212 
mrq_lat_table:1201 	86 	67 	50 	8 	0 	0 	0 	0 	0 	0 	0 	0 	0 	0 	0 	0 	0 	0 	0 	0 	0 	0 	0 	0 	0 	0 	0 	0 	0 	0 	0 	
dq_lat_table:0 	0 	0 	0 	0 	0 	0 	0 	0 	0 	0 	0 	0 	0 	0 	0 	0 	0 	0 	0 	0 	0 	0 	0 	0 	0 	0 	0 	0 	0 	0 	0 	
mf_lat_table:0 	0 	0 	0 	0 	0 	0 	20348 	10566 	166 	0 	0 	0 	0 	0 	0 	0 	0 	0 	0 	0 	0 	0 	0 	0 	0 	0 	0 	0 	0 	0 	0 	
icnt2mem_lat_table:0 	0 	0 	12566 	4470 	6417 	5346 	2135 	235 	0 	0 	0 	0 	0 	0 	0 	0 	0 	0 	0 	0 	0 	0 	0 	
icnt2sh_lat_table:0 	0 	0 	2458 	3796 	5672 	1188 	16 	0 	0 	1 	8 	62 	1119 	11957 	4803 	0 	0 	0 	0 	0 	0 	0 	0 	
mf_lat_pw_table:0 	0 	0 	0 	0 	0 	0 	81 	24 	0 	0 	0 	0 	0 	0 	0 	0 	0 	0 	0 	0 	0 	0 	0 	0 	0 	0 	0 	0 	0 	0 	0 	
maximum concurrent accesses to same row:
dram[0]:         1         0         0         0         0         0         0         0         0         0         0         0         0         0         0         0 
dram[1]:         0         0         0         0         0         0         0         0         0         0         0         0         0         0         0         0 
dram[2]:         0         0         0         0         0         0         0         0         0         0         0         0         0         0         0         0 
dram[3]:         0         0         0         0         0         0         0         0         0         0         0         0         0         0         0         0 
dram[4]:         0         0         0         0         0         0         0         0         0         0         0         0         0         0         0         0 
dram[5]:         0         0         0         0         0         0         0         0         0         0         0         0         0         0         0         0 
maximum service time to same row:
dram[0]:       316         0         0         0       562       644       541       616       775       857      1159      1146         0         0         0         0 
dram[1]:      1441         0         0         0       565       549       544       891       969       897      1171      1154         0         0         0         0 
dram[2]:       249         0         0         0       538      1491       540       543       926       872      1169      1176         0         0         0         0 
dram[3]:         0         0         0         0       560       566       643       566       946       869      1179      1185         0         0         0         0 
dram[4]:         0         0         0         0       540       541      1901       835       882      2460      1163      1151         0         0         0         0 
dram[5]:         0         0         0         0       543       644       566       601       888       872      1172      1160         0         0         0         0 
average row accesses per activate:
dram[0]:  1.000000      -nan      -nan      -nan 10.000000 10.000000 32.000000 32.000000 32.000000 32.000000 42.000000 43.000000      -nan      -nan      -nan      -nan 
dram[1]:  2.000000      -nan      -nan      -nan 10.000000 10.000000 32.000000 32.000000 32.000000 32.000000 42.000000 44.000000      -nan      -nan      -nan      -nan 
dram[2]:  2.000000      -nan      -nan      -nan 10.000000 12.000000 32.000000 32.000000 32.000000 32.000000 43.000000 45.000000      -nan      -nan      -nan      -nan 
dram[3]:      -nan      -nan      -nan      -nan 10.000000 12.000000 32.000000 32.000000 32.000000 32.000000 41.000000 39.000000      -nan      -nan      -nan      -nan 
dram[4]:      -nan      -nan      -nan      -nan 10.000000 12.000000 32.000000 32.000000 32.000000 32.000000 43.000000 41.000000      -nan      -nan      -nan      -nan 
dram[5]:      -nan      -nan      -nan      -nan 10.000000 12.000000 32.000000 32.000000 32.000000 32.000000 46.000000 40.000000      -nan      -nan      -nan      -nan 
average row locality = 1412/53 = 26.641510
number of total memory accesses made:
dram[0]:         0         0         0         0         0         0         0         0         0         0         0         0         0         0         0         0 
dram[1]:         0         0         0         0         0         0         0         0         0         0         0         0         0         0         0         0 
dram[2]:         0         0         0         0         0         0         0         0         0         0         0         0         0         0         0         0 
dram[3]:         0         0         0         0         0         0         0         0         0         0         0         0         0         0         0         0 
dram[4]:         0         0         0         0         0         0         0         0         0         0         0         0         0         0         0         0 
dram[5]:         0         0         0         0         0         0         0         0         0         0         0         0         0         0         0         0 
total accesses: 0
min_bank_accesses = 0!
min_chip_accesses = 0!
number of total read accesses:
dram[0]:         3         0         0         0        10        10        32        32        32        32        30        30         0         0         0         0 
dram[1]:         2         0         0         0        10        10        32        32        32        32        30        30         0         0         0         0 
dram[2]:         2         0         0         0        10        12        32        32        32        32        30        29         0         0         0         0 
dram[3]:         0         0         0         0        10        12        32        32        32        32        30        28         0         0         0         0 
dram[4]:         0         0         0         0        10        12        32        32        32        32        30        28         0         0         0         0 
dram[5]:         0         0         0         0        10        12        32        32        32        32        30        28         0         0         0         0 
total reads: 1256
min_bank_accesses = 0!
chip skew: 211/208 = 1.01
number of total write accesses:
dram[0]:         0         0         0         0         0         0         0         0         0         0        12        13         0         0         0         0 
dram[1]:         0         0         0         0         0         0         0         0         0         0        12        14         0         0         0         0 
dram[2]:         0         0         0         0         0         0         0         0         0         0        13        16         0         0         0         0 
dram[3]:         0         0         0         0         0         0         0         0         0         0        11        11         0         0         0         0 
dram[4]:         0         0         0         0         0         0         0         0         0         0        13        13         0         0         0         0 
dram[5]:         0         0         0         0         0         0         0         0         0         0        16        12         0         0         0         0 
total reads: 156
min_bank_accesses = 0!
chip skew: 29/22 = 1.32
average mf latency per bank:
dram[0]:       1041    none      none      none        2934      2711      2665      2633      2106      2383      8262      9242    none      none      none      none  
dram[1]:          0    none      none      none        2613      2524      2389      2308      1905      2078      8584      8472    none      none      none      none  
dram[2]:          0    none      none      none        2861      2863      2566      2506      2100      2282      8344     13537    none      none      none      none  
dram[3]:     none      none      none      none        2971      2595      2567      2390      2250      2196      8984     11050    none      none      none      none  
dram[4]:     none      none      none      none        2757      3668      2240      2902      2072      2652      8773     13237    none      none      none      none  
dram[5]:     none      none      none      none        2345      3520      2578      3172      2392      2915      7894     13344    none      none      none      none  
maximum mf latency per bank:
dram[0]:        278         0         0         0       454       419       478       533       506       552       516       617         0         0         0         0
dram[1]:          0         0         0         0       465       393       478       457       471       494       465       535         0         0         0         0
dram[2]:          0         0         0         0       547       512       513       485       458       464       531       522         0         0         0         0
dram[3]:          0         0         0         0       582       447       599       430       504       435       636       480         0         0         0         0
dram[4]:          0         0         0         0       396       549       452       668       473       774       480       739         0         0         0         0
dram[5]:          0         0         0         0       386       499       530       547       524       538       523       545         0         0         0         0
Memory Partition 0: 
Cache L2_bank_000:
MSHR contents

Cache L2_bank_001:
MSHR contents

In Dram Latency Queue (total = 0): 
DRAM[0]: 16 bks, busW=4 BL=8 CL=12, tRRD=2 tCCD=6, tRCD=12 tRAS=28 tRP=12 tRC=40
n_cmd=66076 n_nop=65616 n_act=11 n_pre=2 n_req=236 n_rd=422 n_write=25 bw_util=0.01353
n_activity=2697 dram_eff=0.3315
bk0: 6a 66003i bk1: 0a 66073i bk2: 0a 66077i bk3: 0a 66077i bk4: 20a 66010i bk5: 20a 65998i bk6: 64a 65868i bk7: 64a 65818i bk8: 64a 65913i bk9: 64a 65881i bk10: 60a 65814i bk11: 60a 65755i bk12: 0a 66073i bk13: 0a 66074i bk14: 0a 66075i bk15: 0a 66075i 
dram_util_bins: 0 0 0 0 0 0 0 0 0 0
dram_eff_bins: 0 0 0 0 0 0 0 0 0 0
mrqq: max=3 avg=0.00419214
Memory Partition 1: 
Cache L2_bank_002:
MSHR contents

Cache L2_bank_003:
MSHR contents

In Dram Latency Queue (total = 0): 
DRAM[1]: 16 bks, busW=4 BL=8 CL=12, tRRD=2 tCCD=6, tRCD=12 tRAS=28 tRP=12 tRC=40
n_cmd=66076 n_nop=65621 n_act=9 n_pre=0 n_req=236 n_rd=420 n_write=26 bw_util=0.0135
n_activity=2634 dram_eff=0.3386
bk0: 4a 66054i bk1: 0a 66076i bk2: 0a 66078i bk3: 0a 66080i bk4: 20a 66016i bk5: 20a 66000i bk6: 64a 65905i bk7: 64a 65808i bk8: 64a 65911i bk9: 64a 65857i bk10: 60a 65811i bk11: 60a 65775i bk12: 0a 66072i bk13: 0a 66072i bk14: 0a 66074i bk15: 0a 66075i 
dram_util_bins: 0 0 0 0 0 0 0 0 0 0
dram_eff_bins: 0 0 0 0 0 0 0 0 0 0
mrqq: max=3 avg=0.00429808
Memory Partition 2: 
Cache L2_bank_004:
MSHR contents

Cache L2_bank_005:
MSHR contents

In Dram Latency Queue (total = 0): 
DRAM[2]: 16 bks, busW=4 BL=8 CL=12, tRRD=2 tCCD=6, tRCD=12 tRAS=28 tRP=12 tRC=40
n_cmd=66076 n_nop=65616 n_act=9 n_pre=0 n_req=240 n_rd=422 n_write=29 bw_util=0.01365
n_activity=2787 dram_eff=0.3236
bk0: 4a 66057i bk1: 0a 66077i bk2: 0a 66077i bk3: 0a 66077i bk4: 20a 66021i bk5: 24a 65995i bk6: 64a 65891i bk7: 64a 65888i bk8: 64a 65907i bk9: 64a 65906i bk10: 60a 65800i bk11: 58a 65756i bk12: 0a 66073i bk13: 0a 66074i bk14: 0a 66076i bk15: 0a 66077i 
dram_util_bins: 0 0 0 0 0 0 0 0 0 0
dram_eff_bins: 0 0 0 0 0 0 0 0 0 0
mrqq: max=2 avg=0.00255766
Memory Partition 3: 
Cache L2_bank_006:
MSHR contents

Cache L2_bank_007:
MSHR contents

In Dram Latency Queue (total = 0): 
DRAM[3]: 16 bks, busW=4 BL=8 CL=12, tRRD=2 tCCD=6, tRCD=12 tRAS=28 tRP=12 tRC=40
n_cmd=66076 n_nop=65630 n_act=8 n_pre=0 n_req=230 n_rd=416 n_write=22 bw_util=0.01326
n_activity=2572 dram_eff=0.3406
bk0: 0a 66074i bk1: 0a 66078i bk2: 0a 66079i bk3: 0a 66079i bk4: 20a 65995i bk5: 24a 65991i bk6: 64a 65900i bk7: 64a 65823i bk8: 64a 65916i bk9: 64a 65889i bk10: 60a 65815i bk11: 56a 65813i bk12: 0a 66074i bk13: 0a 66074i bk14: 0a 66074i bk15: 0a 66074i 
dram_util_bins: 0 0 0 0 0 0 0 0 0 0
dram_eff_bins: 0 0 0 0 0 0 0 0 0 0
mrqq: max=3 avg=0.00269387
Memory Partition 4: 
Cache L2_bank_008:
MSHR contents

Cache L2_bank_009:
MSHR contents

In Dram Latency Queue (total = 0): 
DRAM[4]: 16 bks, busW=4 BL=8 CL=12, tRRD=2 tCCD=6, tRCD=12 tRAS=28 tRP=12 tRC=40
n_cmd=66076 n_nop=65626 n_act=8 n_pre=0 n_req=234 n_rd=416 n_write=26 bw_util=0.01338
n_activity=2427 dram_eff=0.3642
bk0: 0a 66076i bk1: 0a 66078i bk2: 0a 66078i bk3: 0a 66078i bk4: 20a 65999i bk5: 24a 65963i bk6: 64a 65883i bk7: 64a 65843i bk8: 64a 65893i bk9: 64a 65810i bk10: 60a 65757i bk11: 56a 65745i bk12: 0a 66071i bk13: 0a 66073i bk14: 0a 66074i bk15: 0a 66074i 
dram_util_bins: 0 0 0 0 0 0 0 0 0 0
dram_eff_bins: 0 0 0 0 0 0 0 0 0 0
mrqq: max=2 avg=0.00417701
Memory Partition 5: 
Cache L2_bank_010:
MSHR contents

Cache L2_bank_011:
MSHR contents

In Dram Latency Queue (total = 0): 
DRAM[5]: 16 bks, busW=4 BL=8 CL=12, tRRD=2 tCCD=6, tRCD=12 tRAS=28 tRP=12 tRC=40
n_cmd=66076 n_nop=65624 n_act=8 n_pre=0 n_req=236 n_rd=416 n_write=28 bw_util=0.01344
n_activity=2405 dram_eff=0.3692
bk0: 0a 66075i bk1: 0a 66076i bk2: 0a 66079i bk3: 0a 66079i bk4: 20a 66012i bk5: 24a 65990i bk6: 64a 65859i bk7: 64a 65848i bk8: 64a 65896i bk9: 64a 65803i bk10: 60a 65745i bk11: 56a 65753i bk12: 0a 66073i bk13: 0a 66074i bk14: 0a 66075i bk15: 0a 66075i 
dram_util_bins: 0 0 0 0 0 0 0 0 0 0
dram_eff_bins: 0 0 0 0 0 0 0 0 0 0
mrqq: max=2 avg=0.00446456

========= L2 cache stats =========
L2_cache_bank[0]: Access = 2465, Miss = 107, Miss_rate = 0.043, Pending_hits = 10, Reservation_fails = 342
L2_cache_bank[1]: Access = 2510, Miss = 104, Miss_rate = 0.041, Pending_hits = 1, Reservation_fails = 0
L2_cache_bank[2]: Access = 2351, Miss = 106, Miss_rate = 0.045, Pending_hits = 5, Reservation_fails = 100
L2_cache_bank[3]: Access = 2439, Miss = 104, Miss_rate = 0.043, Pending_hits = 3, Reservation_fails = 0
L2_cache_bank[4]: Access = 2395, Miss = 106, Miss_rate = 0.044, Pending_hits = 5, Reservation_fails = 78
L2_cache_bank[5]: Access = 3330, Miss = 105, Miss_rate = 0.032, Pending_hits = 5, Reservation_fails = 103
L2_cache_bank[6]: Access = 2338, Miss = 104, Miss_rate = 0.044, Pending_hits = 1, Reservation_fails = 0
L2_cache_bank[7]: Access = 2769, Miss = 104, Miss_rate = 0.038, Pending_hits = 1, Reservation_fails = 0
L2_cache_bank[8]: Access = 2520, Miss = 104, Miss_rate = 0.041, Pending_hits = 2, Reservation_fails = 0
L2_cache_bank[9]: Access = 2811, Miss = 104, Miss_rate = 0.037, Pending_hits = 1, Reservation_fails = 0
L2_cache_bank[10]: Access = 2438, Miss = 104, Miss_rate = 0.043, Pending_hits = 2, Reservation_fails = 0
L2_cache_bank[11]: Access = 2803, Miss = 104, Miss_rate = 0.037, Pending_hits = 1, Reservation_fails = 0
L2_total_cache_accesses = 31169
L2_total_cache_misses = 1256
L2_total_cache_miss_rate = 0.0403
L2_total_cache_pending_hits = 37
L2_total_cache_reservation_fails = 623
L2_total_cache_breakdown:
	L2_cache_stats_breakdown[GLOBAL_ACC_R][HIT] = 12000
	L2_cache_stats_breakdown[GLOBAL_ACC_R][HIT_RESERVED] = 4
	L2_cache_stats_breakdown[GLOBAL_ACC_R][MISS] = 1111
	L2_cache_stats_breakdown[CONST_ACC_R][HIT] = 11
	L2_cache_stats_breakdown[CONST_ACC_R][HIT_RESERVED] = 3
	L2_cache_stats_breakdown[CONST_ACC_R][MISS] = 1
	L2_cache_stats_breakdown[CONST_ACC_R][RESERVATION_FAIL] = 109
	L2_cache_stats_breakdown[GLOBAL_ACC_W][HIT] = 17794
	L2_cache_stats_breakdown[GLOBAL_ACC_W][HIT_RESERVED] = 18
	L2_cache_stats_breakdown[GLOBAL_ACC_W][MISS] = 138
	L2_cache_stats_breakdown[GLOBAL_ACC_W][RESERVATION_FAIL] = 103
	L2_cache_stats_breakdown[INST_ACC_R][HIT] = 71
	L2_cache_stats_breakdown[INST_ACC_R][HIT_RESERVED] = 12
	L2_cache_stats_breakdown[INST_ACC_R][MISS] = 6
	L2_cache_stats_breakdown[INST_ACC_R][RESERVATION_FAIL] = 411
L2_cache_data_port_util = 0.110
L2_cache_fill_port_util = 0.008

icnt_total_pkts_mem_to_simt=84015
icnt_total_pkts_simt_to_mem=49272
LD_mem_lat_dist  0 0 0 0 0 0 0 0 0 0 0 0 0 0 0 0 0 0 0 0 0 0 0 0 0 0 0
ST_mem_lat_dist  0 0 0 0 0 0 0 0 0 0 0 0 0 0 0 0 0 0 0 0 0 0 0 0 0 0 0
----------------------------Interconnect-DETAILS--------------------------------
Class 0:
Packet latency average = 8.30882
	minimum = 6
	maximum = 13
Network latency average = 8.25
	minimum = 6
	maximum = 13
Slowest packet = 62335
Flit latency average = 6.2598
	minimum = 6
	maximum = 9
Slowest flit = 133272
Fragmentation average = 0
	minimum = 0
	maximum = 0
Injected packet rate average = 0.00496749
	minimum = 0 (at node 0)
	maximum = 0.0118343 (at node 8)
Accepted packet rate average = 0.00496749
	minimum = 0 (at node 0)
	maximum = 0.0118343 (at node 8)
Injected flit rate average = 0.0149025
	minimum = 0 (at node 0)
	maximum = 0.0394477 (at node 19)
Accepted flit rate average= 0.0149025
	minimum = 0 (at node 0)
	maximum = 0.0591716 (at node 8)
Injected packet length average = 3
Accepted packet length average = 3
Total in-flight flits = 0 (0 measured)
====== Overall Traffic Statistics ======
====== Traffic class 0 ======
Packet latency average = 17.1837 (16 samples)
	minimum = 6 (16 samples)
	maximum = 90.875 (16 samples)
Network latency average = 12.5885 (16 samples)
	minimum = 6 (16 samples)
	maximum = 68.5625 (16 samples)
Flit latency average = 12.1983 (16 samples)
	minimum = 6 (16 samples)
	maximum = 66.6875 (16 samples)
Fragmentation average = 0.00397044 (16 samples)
	minimum = 0 (16 samples)
	maximum = 18.375 (16 samples)
Injected packet rate average = 0.0299628 (16 samples)
	minimum = 0 (16 samples)
	maximum = 0.0865494 (16 samples)
Accepted packet rate average = 0.0299628 (16 samples)
	minimum = 0 (16 samples)
	maximum = 0.0865494 (16 samples)
Injected flit rate average = 0.0593058 (16 samples)
	minimum = 0 (16 samples)
	maximum = 0.133189 (16 samples)
Accepted flit rate average = 0.0593058 (16 samples)
	minimum = 0 (16 samples)
	maximum = 0.207471 (16 samples)
Injected packet size average = 1.97931 (16 samples)
Accepted packet size average = 1.97931 (16 samples)
Hops average = 1 (16 samples)
----------------------------END-of-Interconnect-DETAILS-------------------------


gpgpu_simulation_time = 0 days, 0 hrs, 0 min, 12 sec (12 sec)
gpgpu_simulation_rate = 178907 (inst/sec)
gpgpu_simulation_rate = 4172 (cycle/sec)
Kernel Executed 8 times
Result stored in result.txt
