

        *** GPGPU-Sim Simulator Version 3.2.2  [build 0] ***


GPGPU-Sim PTX: simulation mode 0 (can change with PTX_SIM_MODE_FUNC environment variable:
               1=functional simulation only, 0=detailed performance simulator)
GPGPU-Sim: Configuration options:

-network_mode                           1 # Interconnection network mode
-inter_config_file   config_fermi_islip.icnt # Interconnection network config file
-gpgpu_ptx_use_cuobjdump                    1 # Use cuobjdump to extract ptx and sass from binaries
-gpgpu_experimental_lib_support                    0 # Try to extract code from cuda libraries [Broken because of unknown cudaGetExportTable]
-gpgpu_ptx_convert_to_ptxplus                    0 # Convert SASS (native ISA) to ptxplus and run ptxplus
-gpgpu_ptx_force_max_capability                   20 # Force maximum compute capability
-gpgpu_ptx_inst_debug_to_file                    0 # Dump executed instructions' debug information to file
-gpgpu_ptx_inst_debug_file       inst_debug.txt # Executed instructions' debug output file
-gpgpu_ptx_inst_debug_thread_uid                    1 # Thread UID for executed instructions' debug output
-gpgpu_simd_model                       1 # 1 = post-dominator
-gpgpu_shader_core_pipeline              1536:32 # shader core pipeline config, i.e., {<nthread>:<warpsize>}
-gpgpu_tex_cache:l1  4:128:24,L:R:m:N:L,F:128:4,128:2 # per-shader L1 texture cache  (READ-ONLY) config  {<nsets>:<bsize>:<assoc>,<rep>:<wr>:<alloc>:<wr_alloc>,<mshr>:<N>:<merge>,<mq>:<rf>}
-gpgpu_const_cache:l1 64:64:2,L:R:f:N:L,A:2:32,4 # per-shader L1 constant memory cache  (READ-ONLY) config  {<nsets>:<bsize>:<assoc>,<rep>:<wr>:<alloc>:<wr_alloc>,<mshr>:<N>:<merge>,<mq>} 
-gpgpu_cache:il1     4:128:4,L:R:f:N:L,A:2:32,4 # shader L1 instruction cache config  {<nsets>:<bsize>:<assoc>,<rep>:<wr>:<alloc>:<wr_alloc>,<mshr>:<N>:<merge>,<mq>} 
-gpgpu_cache:dl1     32:128:4,L:L:m:N:H,A:32:8,8 # per-shader L1 data cache config  {<nsets>:<bsize>:<assoc>,<rep>:<wr>:<alloc>:<wr_alloc>,<mshr>:<N>:<merge>,<mq> | none}
-gpgpu_cache:dl1PrefL1                 none # per-shader L1 data cache config  {<nsets>:<bsize>:<assoc>,<rep>:<wr>:<alloc>:<wr_alloc>,<mshr>:<N>:<merge>,<mq> | none}
-gpgpu_cache:dl1PreShared                 none # per-shader L1 data cache config  {<nsets>:<bsize>:<assoc>,<rep>:<wr>:<alloc>:<wr_alloc>,<mshr>:<N>:<merge>,<mq> | none}
-gmem_skip_L1D                          0 # global memory access skip L1D cache (implements -Xptxas -dlcm=cg, default=no skip)
-gpgpu_perfect_mem                      0 # enable perfect memory mode (no cache miss)
-n_regfile_gating_group                    4 # group of lanes that should be read/written together)
-gpgpu_clock_gated_reg_file                    0 # enable clock gated reg file for power calculations
-gpgpu_clock_gated_lanes                    0 # enable clock gated lanes for power calculations
-gpgpu_shader_registers                32768 # Number of registers per shader core. Limits number of concurrent CTAs. (default 8192)
-gpgpu_shader_cta                       8 # Maximum number of concurrent CTAs in shader (default 8)
-gpgpu_num_cta_barriers                   16 # Maximum number of named barriers per CTA (default 16)
-gpgpu_n_clusters                      15 # number of processing clusters
-gpgpu_n_cores_per_cluster                    1 # number of simd cores per cluster
-gpgpu_n_cluster_ejection_buffer_size                    8 # number of packets in ejection buffer
-gpgpu_n_ldst_response_buffer_size                    2 # number of response packets in ld/st unit ejection buffer
-gpgpu_shmem_size                   16384 # Size of shared memory per shader core (default 16kB)
-gpgpu_shmem_size                   49152 # Size of shared memory per shader core (default 16kB)
-gpgpu_shmem_size_PrefL1                16384 # Size of shared memory per shader core (default 16kB)
-gpgpu_shmem_size_PrefShared                16384 # Size of shared memory per shader core (default 16kB)
-gpgpu_shmem_num_banks                   32 # Number of banks in the shared memory in each shader core (default 16)
-gpgpu_shmem_limited_broadcast                    0 # Limit shared memory to do one broadcast per cycle (default on)
-gpgpu_shmem_warp_parts                    1 # Number of portions a warp is divided into for shared memory bank conflict check 
-gpgpu_warpdistro_shader                   -1 # Specify which shader core to collect the warp size distribution from
-gpgpu_warp_issue_shader                    0 # Specify which shader core to collect the warp issue distribution from
-gpgpu_local_mem_map                    1 # Mapping from local memory space address to simulated GPU physical address space (default = enabled)
-gpgpu_num_reg_banks                   16 # Number of register banks (default = 8)
-gpgpu_reg_bank_use_warp_id                    0 # Use warp ID in mapping registers to banks (default = off)
-gpgpu_operand_collector_num_units_sp                    6 # number of collector units (default = 4)
-gpgpu_operand_collector_num_units_sfu                    8 # number of collector units (default = 4)
-gpgpu_operand_collector_num_units_mem                    2 # number of collector units (default = 2)
-gpgpu_operand_collector_num_units_gen                    0 # number of collector units (default = 0)
-gpgpu_operand_collector_num_in_ports_sp                    2 # number of collector unit in ports (default = 1)
-gpgpu_operand_collector_num_in_ports_sfu                    1 # number of collector unit in ports (default = 1)
-gpgpu_operand_collector_num_in_ports_mem                    1 # number of collector unit in ports (default = 1)
-gpgpu_operand_collector_num_in_ports_gen                    0 # number of collector unit in ports (default = 0)
-gpgpu_operand_collector_num_out_ports_sp                    2 # number of collector unit in ports (default = 1)
-gpgpu_operand_collector_num_out_ports_sfu                    1 # number of collector unit in ports (default = 1)
-gpgpu_operand_collector_num_out_ports_mem                    1 # number of collector unit in ports (default = 1)
-gpgpu_operand_collector_num_out_ports_gen                    0 # number of collector unit in ports (default = 0)
-gpgpu_coalesce_arch                   13 # Coalescing arch (default = 13, anything else is off for now)
-gpgpu_num_sched_per_core                    2 # Number of warp schedulers per core
-gpgpu_max_insn_issue_per_warp                    1 # Max number of instructions that can be issued per warp in one cycle by scheduler
-gpgpu_simt_core_sim_order                    1 # Select the simulation order of cores in a cluster (0=Fix, 1=Round-Robin)
-gpgpu_pipeline_widths        2,1,1,2,1,1,2 # Pipeline widths ID_OC_SP,ID_OC_SFU,ID_OC_MEM,OC_EX_SP,OC_EX_SFU,OC_EX_MEM,EX_WB
-gpgpu_num_sp_units                     2 # Number of SP units (default=1)
-gpgpu_num_sfu_units                    1 # Number of SF units (default=1)
-gpgpu_num_mem_units                    1 # Number if ldst units (default=1) WARNING: not hooked up to anything
-gpgpu_scheduler                      gto # Scheduler configuration: < lrr | gto | two_level_active > If two_level_active:<num_active_warps>:<inner_prioritization>:<outer_prioritization>For complete list of prioritization values see shader.h enum scheduler_prioritization_typeDefault: gto
-gpgpu_dram_scheduler                    1 # 0 = fifo, 1 = FR-FCFS (defaul)
-gpgpu_dram_partition_queues              8:8:8:8 # i2$:$2d:d2$:$2i
-l2_ideal                               0 # Use a ideal L2 cache that always hit
-gpgpu_cache:dl2     64:128:8,L:B:m:W:L,A:32:4,4:0,32 # unified banked L2 data cache config  {<nsets>:<bsize>:<assoc>,<rep>:<wr>:<alloc>:<wr_alloc>,<mshr>:<N>:<merge>,<mq>}
-gpgpu_cache:dl2_texture_only                    0 # L2 cache used for texture only
-gpgpu_n_mem                            6 # number of memory modules (e.g. memory controllers) in gpu
-gpgpu_n_sub_partition_per_mchannel                    2 # number of memory subpartition in each memory module
-gpgpu_n_mem_per_ctrlr                    2 # number of memory chips per memory controller
-gpgpu_memlatency_stat                   14 # track and display latency statistics 0x2 enables MC, 0x4 enables queue logs
-gpgpu_frfcfs_dram_sched_queue_size                   16 # 0 = unlimited (default); # entries per chip
-gpgpu_dram_return_queue_size                  116 # 0 = unlimited (default); # entries per chip
-gpgpu_dram_buswidth                    4 # default = 4 bytes (8 bytes per cycle at DDR)
-gpgpu_dram_burst_length                    8 # Burst length of each DRAM request (default = 4 data bus cycle)
-dram_data_command_freq_ratio                    4 # Frequency ratio between DRAM data bus and command bus (default = 2 times, i.e. DDR)
-gpgpu_dram_timing_opt nbk=16:CCD=2:RRD=6:RCD=12:RAS=28:RP=12:RC=40: CL=12:WL=4:CDLR=5:WR=12:nbkgrp=4:CCDL=3:RTPL=2 # DRAM timing parameters = {nbk:tCCD:tRRD:tRCD:tRAS:tRP:tRC:CL:WL:tCDLR:tWR:nbkgrp:tCCDL:tRTPL}
-rop_latency                          120 # ROP queue latency (default 85)
-dram_latency                         100 # DRAM latency (default 30)
-gpgpu_mem_addr_mapping dramid@8;00000000.00000000.00000000.00000000.0000RRRR.RRRRRRRR.BBBCCCCB.CCSSSSSS # mapping memory address to dram model {dramid@<start bit>;<memory address map>}
-gpgpu_mem_addr_test                    0 # run sweep test to check address mapping for aliased address
-gpgpu_mem_address_mask                    1 # 0 = old addressing mask, 1 = new addressing mask, 2 = new add. mask + flipped bank sel and chip sel bits
-gpuwattch_xml_file  gpuwattch_gtx480.xml # GPUWattch XML file
-power_simulation_enabled                    1 # Turn on power simulator (1=On, 0=Off)
-power_per_cycle_dump                    0 # Dump detailed power output each cycle
-power_trace_enabled                    0 # produce a file for the power trace (1=On, 0=Off)
-power_trace_zlevel                     6 # Compression level of the power trace output log (0=no comp, 9=highest)
-steady_power_levels_enabled                    0 # produce a file for the steady power levels (1=On, 0=Off)
-steady_state_definition                  8:4 # allowed deviation:number of samples
-gpgpu_max_cycle                        0 # terminates gpu simulation early (0 = no limit)
-gpgpu_max_insn                         0 # terminates gpu simulation early (0 = no limit)
-gpgpu_max_cta                          0 # terminates gpu simulation early (0 = no limit)
-gpgpu_runtime_stat                   500 # display runtime statistics such as dram utilization {<freq>:<flag>}
-liveness_message_freq                    1 # Minimum number of seconds between simulation liveness messages (0 = always print)
-gpgpu_flush_l1_cache                    0 # Flush L1 cache at the end of each kernel call
-gpgpu_flush_l2_cache                    0 # Flush L2 cache at the end of each kernel call
-gpgpu_deadlock_detect                    1 # Stop the simulation at deadlock (1=on (default), 0=off)
-gpgpu_ptx_instruction_classification                    0 # if enabled will classify ptx instruction types per kernel (Max 255 kernels now)
-gpgpu_ptx_sim_mode                     0 # Select between Performance (default) or Functional simulation (1)
-gpgpu_clock_domains 700.0:700.0:700.0:924.0 # Clock Domain Frequencies in MhZ {<Core Clock>:<ICNT Clock>:<L2 Clock>:<DRAM Clock>}
-gpgpu_max_concurrent_kernel                    8 # maximum kernels that can run concurrently on GPU
-gpgpu_cflog_interval                    0 # Interval between each snapshot in control flow logger
-visualizer_enabled                     0 # Turn on visualizer output (1=On, 0=Off)
-visualizer_outputfile                 NULL # Specifies the output log file for visualizer
-visualizer_zlevel                      6 # Compression level of the visualizer output log (0=no comp, 9=highest)
-trace_enabled                          0 # Turn on traces
-trace_components                    none # comma seperated list of traces to enable. Complete list found in trace_streams.tup. Default none
-trace_sampling_core                    0 # The core which is printed using CORE_DPRINTF. Default 0
-trace_sampling_memory_partition                   -1 # The memory partition which is printed using MEMPART_DPRINTF. Default -1 (i.e. all)
-enable_ptx_file_line_stats                    1 # Turn on PTX source line statistic profiling. (1 = On)
-ptx_line_stats_filename gpgpu_inst_stats.txt # Output file for PTX source line statistics.
-save_embedded_ptx                      0 # saves ptx files embedded in binary as <n>.ptx
-keep                                   0 # keep intermediate files created by GPGPU-Sim when interfacing with external programs
-gpgpu_ptx_save_converted_ptxplus                    0 # Saved converted ptxplus to a file
-ptx_opcode_latency_int         4,13,4,5,145 # Opcode latencies for integers <ADD,MAX,MUL,MAD,DIV>Default 1,1,19,25,145
-ptx_opcode_latency_fp          4,13,4,5,39 # Opcode latencies for single precision floating points <ADD,MAX,MUL,MAD,DIV>Default 1,1,1,1,30
-ptx_opcode_latency_dp         8,19,8,8,330 # Opcode latencies for double precision floating points <ADD,MAX,MUL,MAD,DIV>Default 8,8,8,8,335
-ptx_opcode_initiation_int            1,2,2,1,8 # Opcode initiation intervals for integers <ADD,MAX,MUL,MAD,DIV>Default 1,1,4,4,32
-ptx_opcode_initiation_fp            1,2,1,1,4 # Opcode initiation intervals for single precision floating points <ADD,MAX,MUL,MAD,DIV>Default 1,1,1,1,5
-ptx_opcode_initiation_dp         8,16,8,8,130 # Opcode initiation intervals for double precision floating points <ADD,MAX,MUL,MAD,DIV>Default 8,8,8,8,130
DRAM Timing Options:
nbk                                    16 # number of banks
CCD                                     2 # column to column delay
RRD                                     6 # minimal delay between activation of rows in different banks
RCD                                    12 # row to column delay
RAS                                    28 # time needed to activate row
RP                                     12 # time needed to precharge (deactivate) row
RC                                     40 # row cycle time
CDLR                                    5 # switching from write to read (changes tWTR)
WR                                     12 # last data-in to row precharge
CL                                     12 # CAS latency
WL                                      4 # Write latency
nbkgrp                                  4 # number of bank groups
CCDL                                    3 # column to column delay between accesses to different bank groups
RTPL                                    2 # read to precharge delay between accesses to different bank groups
Total number of memory sub partition = 12
addr_dec_mask[CHIP]  = 0000000000000000 	high:64 low:0
addr_dec_mask[BK]    = 000000000000e100 	high:16 low:8
addr_dec_mask[ROW]   = 000000000fff0000 	high:28 low:16
addr_dec_mask[COL]   = 0000000000001eff 	high:13 low:0
addr_dec_mask[BURST] = 000000000000003f 	high:6 low:0
sub_partition_id_mask = 0000000000000100
GPGPU-Sim uArch: clock freqs: 700000000.000000:700000000.000000:700000000.000000:924000000.000000
GPGPU-Sim uArch: clock periods: 0.00000000142857142857:0.00000000142857142857:0.00000000142857142857:0.00000000108225108225
*** Initializing Memory Statistics ***
GPGPU-Sim uArch: interconnect node map (shaderID+MemID to icntID)
GPGPU-Sim uArch: Memory nodes ID start from index: 15
GPGPU-Sim uArch:    0   1   2   3   4
GPGPU-Sim uArch:    5   6   7   8   9
GPGPU-Sim uArch:   10  11  12  13  14
GPGPU-Sim uArch:   15  16  17  18  19
GPGPU-Sim uArch:   20  21  22  23  24
GPGPU-Sim uArch:   25  26
GPGPU-Sim uArch: interconnect node reverse map (icntID to shaderID+MemID)
GPGPU-Sim uArch: Memory nodes start from ID: 15
GPGPU-Sim uArch:    0   1   2   3   4
GPGPU-Sim uArch:    5   6   7   8   9
GPGPU-Sim uArch:   10  11  12  13  14
GPGPU-Sim uArch:   15  16  17  18  19
GPGPU-Sim uArch:   20  21  22  23  24
GPGPU-Sim uArch:   25  26
acc42826e7b4f04a47d4710394ae5b22  /data/bigdata/2_Gpgpu_Architecture/rodinia_3.0/cuda/.run/lud/sim
GPGPU-Sim uArch: performance model initialization complete.
GPGPU-Sim PTX: __cudaRegisterFatBinary, fat_cubin_handle = 1, filename=lud.cu
self exe links to: /data/bigdata/2_Gpgpu_Architecture/rodinia_3.0/cuda/.run/lud/sim
Running md5sum using "md5sum /data/bigdata/2_Gpgpu_Architecture/rodinia_3.0/cuda/.run/lud/sim "
Running cuobjdump using "$CUDA_INSTALL_PATH/bin/cuobjdump -ptx -elf -sass /data/bigdata/2_Gpgpu_Architecture/rodinia_3.0/cuda/.run/lud/sim > _cuobjdump_complete_output_DtsNgB"
Parsing file _cuobjdump_complete_output_DtsNgB
######### cuobjdump parser ########
## Adding new section PTX
Adding ptx filename: _cuobjdump_1.ptx
Adding arch: sm_20
Adding identifier: lud.cu
## Adding new section PTX
Adding ptx filename: _cuobjdump_2.ptx
Adding arch: sm_20
Adding identifier: lud_kernel.cu
Done parsing!!!
GPGPU-Sim PTX: __cudaRegisterFatBinary, fat_cubin_handle = 2, filename=lud_kernel.cu
GPGPU-Sim PTX: __cudaRegisterFunction _Z12lud_internalPfii : hostFun 0x0x402230, fat_cubin_handle = 2
GPGPU-Sim PTX: allocating stack frame region for .param "func_retval0" from 0x0 to 0x4
GPGPU-Sim PTX: allocating stack frame region for .param "__fdividef_param_0" from 0x4 to 0x8
GPGPU-Sim PTX: allocating stack frame region for .param "__fdividef_param_1" from 0x8 to 0xc
GPGPU-Sim PTX: instruction assembly for function '__fdividef'...   done.
GPGPU-Sim PTX: finding reconvergence points for '__fdividef'...
GPGPU-Sim PTX: Finding dominators for '__fdividef'...
GPGPU-Sim PTX: Finding immediate dominators for '__fdividef'...
GPGPU-Sim PTX: Finding postdominators for '__fdividef'...
GPGPU-Sim PTX: Finding immediate postdominators for '__fdividef'...
GPGPU-Sim PTX: pre-decoding instructions for '__fdividef'...
GPGPU-Sim PTX: reconvergence points for __fdividef...
GPGPU-Sim PTX: ... end of reconvergence points for __fdividef
GPGPU-Sim PTX: ... done pre-decoding instructions for '__fdividef'.
GPGPU-Sim PTX: allocating shared region for "__cuda_local_var_17290_33_non_const_shadow" from 0x0 to 0x400 (shared memory space)
GPGPU-Sim PTX: allocating stack frame region for .param "param0" from 0x0 to 0x4
GPGPU-Sim PTX: allocating stack frame region for .param "param1" from 0x4 to 0x8
GPGPU-Sim PTX: allocating stack frame region for .param "retval0" from 0x8 to 0xc
GPGPU-Sim PTX: instruction assembly for function '_Z12lud_diagonalPfii'...   done.
GPGPU-Sim PTX: finding reconvergence points for '_Z12lud_diagonalPfii'...
GPGPU-Sim PTX: Finding dominators for '_Z12lud_diagonalPfii'...
GPGPU-Sim PTX: Finding immediate dominators for '_Z12lud_diagonalPfii'...
GPGPU-Sim PTX: Finding postdominators for '_Z12lud_diagonalPfii'...
GPGPU-Sim PTX: Finding immediate postdominators for '_Z12lud_diagonalPfii'...
GPGPU-Sim PTX: pre-decoding instructions for '_Z12lud_diagonalPfii'...
GPGPU-Sim PTX: reconvergence points for _Z12lud_diagonalPfii...
GPGPU-Sim PTX:  1 (potential) branch divergence @  PC=0x060 (_2.ptx:67) @%p2 bra BB1_4;
GPGPU-Sim PTX:    immediate post dominator      @  PC=0x0f8 (_2.ptx:97) bar.sync 0;
GPGPU-Sim PTX:  2 (potential) branch divergence @  PC=0x0f0 (_2.ptx:93) bra.uni BB1_1;
GPGPU-Sim PTX:    immediate post dominator      @  PC=0x050 (_2.ptx:65) setp.lt.s32 %p1, %r57, 16;
GPGPU-Sim PTX:  3 (potential) branch divergence @  PC=0x118 (_2.ptx:108) @%p4 bra BB1_23;
GPGPU-Sim PTX:    immediate post dominator      @  PC=0x4a8 (_2.ptx:295) add.s32 %r51, %r2, 1;
GPGPU-Sim PTX:  4 (potential) branch divergence @  PC=0x138 (_2.ptx:117) @%p6 bra BB1_13;
GPGPU-Sim PTX:    immediate post dominator      @  PC=0x348 (_2.ptx:218) bar.sync 0;
GPGPU-Sim PTX:  5 (potential) branch divergence @  PC=0x158 (_2.ptx:128) @%p8 bra BB1_12;
GPGPU-Sim PTX:    immediate post dominator      @  PC=0x248 (_2.ptx:168) mov.u32 %r34, %tid.x;
GPGPU-Sim PTX:  6 (potential) branch divergence @  PC=0x240 (_2.ptx:164) bra.uni BB1_9;
GPGPU-Sim PTX:    immediate post dominator      @  PC=0x148 (_2.ptx:126) setp.lt.s32 %p7, %r60, %r59;
GPGPU-Sim PTX:  7 (potential) branch divergence @  PC=0x368 (_2.ptx:227) @%p10 bra BB1_20;
GPGPU-Sim PTX:    immediate post dominator      @  PC=0x490 (_2.ptx:283) bar.sync 0;
GPGPU-Sim PTX:  8 (potential) branch divergence @  PC=0x390 (_2.ptx:239) @%p12 bra BB1_19;
GPGPU-Sim PTX:    immediate post dominator      @  PC=0x490 (_2.ptx:283) bar.sync 0;
GPGPU-Sim PTX:  9 (potential) branch divergence @  PC=0x488 (_2.ptx:277) bra.uni BB1_16;
GPGPU-Sim PTX:    immediate post dominator      @  PC=0x378 (_2.ptx:236) add.s32 %r41, %r59, 1;
GPGPU-Sim PTX: 10 (potential) branch divergence @  PC=0x4a0 (_2.ptx:291) bra.uni BB1_6;
GPGPU-Sim PTX:    immediate post dominator      @  PC=0x108 (_2.ptx:106) setp.lt.s32 %p3, %r59, 15;
GPGPU-Sim PTX: 11 (potential) branch divergence @  PC=0x4d0 (_2.ptx:307) @%p14 bra BB1_27;
GPGPU-Sim PTX:    immediate post dominator      @  PC=0x568 (_2.ptx:337) ret;
GPGPU-Sim PTX: 12 (potential) branch divergence @  PC=0x560 (_2.ptx:333) bra.uni BB1_24;
GPGPU-Sim PTX:    immediate post dominator      @  PC=0x4c0 (_2.ptx:305) setp.lt.s32 %p13, %r62, 16;
GPGPU-Sim PTX: ... end of reconvergence points for _Z12lud_diagonalPfii
GPGPU-Sim PTX: ... done pre-decoding instructions for '_Z12lud_diagonalPfii'.
GPGPU-Sim PTX: allocating shared region for "__cuda_local_var_17368_33_non_const_dia" from 0x0 to 0x400 (shared memory space)
GPGPU-Sim PTX: allocating shared region for "__cuda_local_var_17369_33_non_const_peri_row" from 0x400 to 0x800 (shared memory space)
GPGPU-Sim PTX: allocating shared region for "__cuda_local_var_17370_33_non_const_peri_col" from 0x800 to 0xc00 (shared memory space)
GPGPU-Sim PTX: allocating stack frame region for .param "param0" from 0x0 to 0x4
GPGPU-Sim PTX: allocating stack frame region for .param "param1" from 0x4 to 0x8
GPGPU-Sim PTX: allocating stack frame region for .param "retval0" from 0x8 to 0xc
GPGPU-Sim PTX: instruction assembly for function '_Z13lud_perimeterPfii'...   done.
GPGPU-Sim PTX: finding reconvergence points for '_Z13lud_perimeterPfii'...
GPGPU-Sim PTX: Finding dominators for '_Z13lud_perimeterPfii'...
GPGPU-Sim PTX: Finding immediate dominators for '_Z13lud_perimeterPfii'...
GPGPU-Sim PTX: Finding postdominators for '_Z13lud_perimeterPfii'...
GPGPU-Sim PTX: Finding immediate postdominators for '_Z13lud_perimeterPfii'...
GPGPU-Sim PTX: pre-decoding instructions for '_Z13lud_perimeterPfii'...
GPGPU-Sim PTX: reconvergence points for _Z13lud_perimeterPfii...
GPGPU-Sim PTX:  1 (potential) branch divergence @  PC=0x5a0 (_2.ptx:368) @%p2 bra BB2_10;
GPGPU-Sim PTX:    immediate post dominator      @  PC=0x8a0 (_2.ptx:545) bar.sync 0;
GPGPU-Sim PTX:  2 (potential) branch divergence @  PC=0x5d0 (_2.ptx:383) @%p4 bra BB2_5;
GPGPU-Sim PTX:    immediate post dominator      @  PC=0x658 (_2.ptx:411) mad.lo.s32 %r109, %r2, %r1, %r2;
GPGPU-Sim PTX:  3 (potential) branch divergence @  PC=0x650 (_2.ptx:407) bra.uni BB2_2;
GPGPU-Sim PTX:    immediate post dominator      @  PC=0x5c0 (_2.ptx:381) setp.lt.s32 %p3, %r106, 8;
GPGPU-Sim PTX:  4 (potential) branch divergence @  PC=0x678 (_2.ptx:421) @%p6 bra BB2_9;
GPGPU-Sim PTX:    immediate post dominator      @  PC=0x718 (_2.ptx:455) bra.uni BB2_19;
GPGPU-Sim PTX:  5 (potential) branch divergence @  PC=0x710 (_2.ptx:448) bra.uni BB2_6;
GPGPU-Sim PTX:    immediate post dominator      @  PC=0x668 (_2.ptx:419) setp.lt.s32 %p5, %r108, 16;
GPGPU-Sim PTX:  6 (potential) branch divergence @  PC=0x718 (_2.ptx:455) bra.uni BB2_19;
GPGPU-Sim PTX:    immediate post dominator      @  PC=0x8a0 (_2.ptx:545) bar.sync 0;
GPGPU-Sim PTX:  7 (potential) branch divergence @  PC=0x758 (_2.ptx:474) @%p8 bra BB2_14;
GPGPU-Sim PTX:    immediate post dominator      @  PC=0x7e0 (_2.ptx:502) mov.u32 %r66, %ctaid.x;
GPGPU-Sim PTX:  8 (potential) branch divergence @  PC=0x7d8 (_2.ptx:498) bra.uni BB2_11;
GPGPU-Sim PTX:    immediate post dominator      @  PC=0x748 (_2.ptx:472) setp.lt.s32 %p7, %r110, 16;
GPGPU-Sim PTX:  9 (potential) branch divergence @  PC=0x818 (_2.ptx:515) @%p10 bra BB2_18;
GPGPU-Sim PTX:    immediate post dominator      @  PC=0x8a0 (_2.ptx:545) bar.sync 0;
GPGPU-Sim PTX: 10 (potential) branch divergence @  PC=0x898 (_2.ptx:539) bra.uni BB2_15;
GPGPU-Sim PTX:    immediate post dominator      @  PC=0x808 (_2.ptx:513) setp.lt.s32 %p9, %r112, 16;
GPGPU-Sim PTX: 11 (potential) branch divergence @  PC=0x8c0 (_2.ptx:554) @%p12 bra BB2_30;
GPGPU-Sim PTX:    immediate post dominator      @  PC=0xc40 (_2.ptx:752) bar.sync 0;
GPGPU-Sim PTX: 12 (potential) branch divergence @  PC=0x8e8 (_2.ptx:567) @%p14 bra BB2_29;
GPGPU-Sim PTX:    immediate post dominator      @  PC=0xa00 (_2.ptx:629) bra.uni BB2_39;
GPGPU-Sim PTX: 13 (potential) branch divergence @  PC=0x908 (_2.ptx:578) @%p16 bra BB2_27;
GPGPU-Sim PTX:    immediate post dominator      @  PC=0x9f0 (_2.ptx:621) add.s32 %r114, %r114, 1;
GPGPU-Sim PTX: 14 (potential) branch divergence @  PC=0x9e8 (_2.ptx:613) bra.uni BB2_24;
GPGPU-Sim PTX:    immediate post dominator      @  PC=0x8f8 (_2.ptx:576) setp.lt.s32 %p15, %r115, %r114;
GPGPU-Sim PTX: 15 (potential) branch divergence @  PC=0x9f8 (_2.ptx:622) bra.uni BB2_22;
GPGPU-Sim PTX:    immediate post dominator      @  PC=0x8d8 (_2.ptx:565) setp.lt.s32 %p13, %r114, 16;
GPGPU-Sim PTX: 16 (potential) branch divergence @  PC=0xa00 (_2.ptx:629) bra.uni BB2_39;
GPGPU-Sim PTX:    immediate post dominator      @  PC=0xc40 (_2.ptx:752) bar.sync 0;
GPGPU-Sim PTX: 17 (potential) branch divergence @  PC=0xa30 (_2.ptx:644) @%p18 bra BB2_38;
GPGPU-Sim PTX:    immediate post dominator      @  PC=0xc40 (_2.ptx:752) bar.sync 0;
GPGPU-Sim PTX: 18 (potential) branch divergence @  PC=0xa50 (_2.ptx:655) @%p20 bra BB2_36;
GPGPU-Sim PTX:    immediate post dominator      @  PC=0xb38 (_2.ptx:694) cvt.s64.s32 %rl82, %r30;
GPGPU-Sim PTX: 19 (potential) branch divergence @  PC=0xb30 (_2.ptx:690) bra.uni BB2_33;
GPGPU-Sim PTX:    immediate post dominator      @  PC=0xa40 (_2.ptx:653) setp.lt.s32 %p19, %r117, %r116;
GPGPU-Sim PTX: 20 (potential) branch divergence @  PC=0xc38 (_2.ptx:746) bra.uni BB2_31;
GPGPU-Sim PTX:    immediate post dominator      @  PC=0xa20 (_2.ptx:642) setp.lt.s32 %p17, %r116, 16;
GPGPU-Sim PTX: 21 (potential) branch divergence @  PC=0xc60 (_2.ptx:761) @%p22 bra BB2_46;
GPGPU-Sim PTX:    immediate post dominator      @  PC=0xe10 (_2.ptx:862) ret;
GPGPU-Sim PTX: 22 (potential) branch divergence @  PC=0xc98 (_2.ptx:778) @%p24 bra BB2_45;
GPGPU-Sim PTX:    immediate post dominator      @  PC=0xd38 (_2.ptx:812) bra.uni BB2_51;
GPGPU-Sim PTX: 23 (potential) branch divergence @  PC=0xd30 (_2.ptx:805) bra.uni BB2_42;
GPGPU-Sim PTX:    immediate post dominator      @  PC=0xc88 (_2.ptx:776) setp.lt.s32 %p23, %r118, 16;
GPGPU-Sim PTX: 24 (potential) branch divergence @  PC=0xd38 (_2.ptx:812) bra.uni BB2_51;
GPGPU-Sim PTX:    immediate post dominator      @  PC=0xe10 (_2.ptx:862) ret;
GPGPU-Sim PTX: 25 (potential) branch divergence @  PC=0xd88 (_2.ptx:832) @%p26 bra BB2_50;
GPGPU-Sim PTX:    immediate post dominator      @  PC=0xe10 (_2.ptx:862) ret;
GPGPU-Sim PTX: 26 (potential) branch divergence @  PC=0xe08 (_2.ptx:856) bra.uni BB2_47;
GPGPU-Sim PTX:    immediate post dominator      @  PC=0xd78 (_2.ptx:830) setp.lt.s32 %p25, %r120, 16;
GPGPU-Sim PTX: ... end of reconvergence points for _Z13lud_perimeterPfii
GPGPU-Sim PTX: ... done pre-decoding instructions for '_Z13lud_perimeterPfii'.
GPGPU-Sim PTX: allocating shared region for "__cuda_local_var_17483_33_non_const_peri_row" from 0x0 to 0x400 (shared memory space)
GPGPU-Sim PTX: allocating shared region for "__cuda_local_var_17484_33_non_const_peri_col" from 0x400 to 0x800 (shared memory space)
GPGPU-Sim PTX: instruction assembly for function '_Z12lud_internalPfii'...   done.
GPGPU-Sim PTX: finding reconvergence points for '_Z12lud_internalPfii'...
GPGPU-Sim PTX: Finding dominators for '_Z12lud_internalPfii'...
GPGPU-Sim PTX: Finding immediate dominators for '_Z12lud_internalPfii'...
GPGPU-Sim PTX: Finding postdominators for '_Z12lud_internalPfii'...
GPGPU-Sim PTX: Finding immediate postdominators for '_Z12lud_internalPfii'...
GPGPU-Sim PTX: pre-decoding instructions for '_Z12lud_internalPfii'...
GPGPU-Sim PTX: reconvergence points for _Z12lud_internalPfii...
GPGPU-Sim PTX:  1 (potential) branch divergence @  PC=0xfb8 (_2.ptx:945) @%p2 bra BB3_6;
GPGPU-Sim PTX:    immediate post dominator      @  PC=0x1070 (_2.ptx:978) mov.u32 %r34, %tid.y;
GPGPU-Sim PTX:  2 (potential) branch divergence @  PC=0x1068 (_2.ptx:974) bra.uni BB3_3;
GPGPU-Sim PTX:    immediate post dominator      @  PC=0xfa8 (_2.ptx:943) setp.lt.s32 %p1, %r41, 16;
GPGPU-Sim PTX: ... end of reconvergence points for _Z12lud_internalPfii
GPGPU-Sim PTX: ... done pre-decoding instructions for '_Z12lud_internalPfii'.
GPGPU-Sim PTX: finished parsing EMBEDDED .ptx file _2.ptx
Adding _cuobjdump_2.ptx with cubin handle 2
GPGPU-Sim PTX: extracting embedded .ptx to temporary file "_ptx_I9IyzZ"
Running: cat _ptx_I9IyzZ | sed 's/.version 1.5/.version 1.4/' | sed 's/, texmode_independent//' | sed 's/\(\.extern \.const\[1\] .b8 \w\+\)\[\]/\1\[1\]/' | sed 's/const\[.\]/const\[0\]/g' > _ptx2_7POkSn
CF_UTILS: Static Branch stats
extrinsic: 22, intrinsic: 18
GPGPU-Sim PTX: generating ptxinfo using "$CUDA_INSTALL_PATH/bin/ptxas --gpu-name=sm_20 -v _ptx2_7POkSn_lab --output-file  /dev/null 2> _ptx_I9IyzZinfo"
GPGPU-Sim PTX: Kernel '_Z13lud_perimeterPfii' : regs=18, lmem=0, smem=3072, cmem=48
GPGPU-Sim PTX: Kernel '_Z12lud_internalPfii' : regs=15, lmem=0, smem=2048, cmem=48
GPGPU-Sim PTX: Kernel '_Z12lud_diagonalPfii' : regs=13, lmem=0, smem=1024, cmem=48
GPGPU-Sim PTX: removing ptxinfo using "rm -f _ptx_I9IyzZ _ptx2_7POkSn _ptx_I9IyzZinfo"
GPGPU-Sim PTX: loading globals with explicit initializers... 
GPGPU-Sim PTX: finished loading globals (0 bytes total).
GPGPU-Sim PTX: loading constants with explicit initializers...  done.
GPGPU-Sim PTX: __cudaRegisterFunction _Z13lud_perimeterPfii : hostFun 0x0x402175, fat_cubin_handle = 2
GPGPU-Sim PTX: __cudaRegisterFunction _Z12lud_diagonalPfii : hostFun 0x0x4020ba, fat_cubin_handle = 2
WG size of kernel = 16 X 16
Generate input matrix internally, size =256
Creating matrix internally size=256
Before LUD

GPGPU-Sim PTX: cudaLaunch for 0x0x4020ba (mode=performance simulation) on stream 0
GPGPU-Sim PTX: pushing kernel '_Z12lud_diagonalPfii' to stream 0, gridDim= (1,1,1) blockDim = (16,1,1) 
kernel '_Z12lud_diagonalPfii' transfer to GPU hardware scheduler
GPGPU-Sim uArch: Shader 1 bind to kernel 1 '_Z12lud_diagonalPfii'
GPGPU-Sim uArch: CTA/core = 8, limited by: cta_limit
GPGPU-Sim uArch: core:  1, cta: 0 initialized @(1,0)
GPGPU-Sim uArch: cycles simulated: 500  inst.: 0 (ipc= 0.0) sim_rate=0 (inst/sec) elapsed = 0:0:00:01 / Wed Dec  9 00:08:28 2015
Branch Status: 2
Branch- 0: 2, 0, 0, 0, 0, 0, 0, 0, 0, 0, 0, 0, 0, 0, 0, 0, 1, 1, 1, 1, 1, 1, 1, 1, 1, 1, 1, 1, 1, 1, 1, 1
Branch Status: 2
Branch- 0: 2, 0, 0, 0, 0, 0, 0, 0, 0, 0, 0, 0, 0, 0, 0, 0, 1, 1, 1, 1, 1, 1, 1, 1, 1, 1, 1, 1, 1, 1, 1, 1
Branch Status: 2
Branch- 0: 2, 2, 0, 0, 0, 0, 0, 0, 0, 0, 0, 0, 0, 0, 0, 0, 1, 1, 1, 1, 1, 1, 1, 1, 1, 1, 1, 1, 1, 1, 1, 1
Branch Status: 2
Branch- 0: 2, 2, 0, 0, 0, 0, 0, 0, 0, 0, 0, 0, 0, 0, 0, 0, 1, 1, 1, 1, 1, 1, 1, 1, 1, 1, 1, 1, 1, 1, 1, 1
Branch Status: 2
Branch- 0: 2, 2, 2, 0, 0, 0, 0, 0, 0, 0, 0, 0, 0, 0, 0, 0, 1, 1, 1, 1, 1, 1, 1, 1, 1, 1, 1, 1, 1, 1, 1, 1
Branch Status: 2
Branch- 0: 2, 2, 2, 0, 0, 0, 0, 0, 0, 0, 0, 0, 0, 0, 0, 0, 1, 1, 1, 1, 1, 1, 1, 1, 1, 1, 1, 1, 1, 1, 1, 1
Branch Status: 2
Branch- 0: 2, 2, 2, 2, 0, 0, 0, 0, 0, 0, 0, 0, 0, 0, 0, 0, 1, 1, 1, 1, 1, 1, 1, 1, 1, 1, 1, 1, 1, 1, 1, 1
Branch Status: 2
Branch- 0: 2, 2, 2, 2, 0, 0, 0, 0, 0, 0, 0, 0, 0, 0, 0, 0, 1, 1, 1, 1, 1, 1, 1, 1, 1, 1, 1, 1, 1, 1, 1, 1
Branch Status: 2
Branch- 0: 2, 2, 2, 2, 2, 0, 0, 0, 0, 0, 0, 0, 0, 0, 0, 0, 1, 1, 1, 1, 1, 1, 1, 1, 1, 1, 1, 1, 1, 1, 1, 1
Branch Status: 2
Branch- 0: 2, 2, 2, 2, 2, 0, 0, 0, 0, 0, 0, 0, 0, 0, 0, 0, 1, 1, 1, 1, 1, 1, 1, 1, 1, 1, 1, 1, 1, 1, 1, 1
Branch Status: 2
Branch- 0: 2, 2, 2, 2, 2, 2, 0, 0, 0, 0, 0, 0, 0, 0, 0, 0, 1, 1, 1, 1, 1, 1, 1, 1, 1, 1, 1, 1, 1, 1, 1, 1
Branch Status: 2
Branch- 0: 2, 2, 2, 2, 2, 2, 0, 0, 0, 0, 0, 0, 0, 0, 0, 0, 1, 1, 1, 1, 1, 1, 1, 1, 1, 1, 1, 1, 1, 1, 1, 1
Branch Status: 2
Branch- 0: 2, 2, 2, 2, 2, 2, 2, 0, 0, 0, 0, 0, 0, 0, 0, 0, 1, 1, 1, 1, 1, 1, 1, 1, 1, 1, 1, 1, 1, 1, 1, 1
Branch Status: 2
Branch- 0: 2, 2, 2, 2, 2, 2, 2, 0, 0, 0, 0, 0, 0, 0, 0, 0, 1, 1, 1, 1, 1, 1, 1, 1, 1, 1, 1, 1, 1, 1, 1, 1
Branch Status: 2
Branch- 0: 2, 2, 2, 2, 2, 2, 2, 2, 0, 0, 0, 0, 0, 0, 0, 0, 1, 1, 1, 1, 1, 1, 1, 1, 1, 1, 1, 1, 1, 1, 1, 1
Branch Status: 2
Branch- 0: 2, 2, 2, 2, 2, 2, 2, 2, 0, 0, 0, 0, 0, 0, 0, 0, 1, 1, 1, 1, 1, 1, 1, 1, 1, 1, 1, 1, 1, 1, 1, 1
Branch Status: 2
Branch- 0: 2, 2, 2, 2, 2, 2, 2, 2, 2, 0, 0, 0, 0, 0, 0, 0, 1, 1, 1, 1, 1, 1, 1, 1, 1, 1, 1, 1, 1, 1, 1, 1
Branch Status: 2
Branch- 0: 2, 2, 2, 2, 2, 2, 2, 2, 2, 0, 0, 0, 0, 0, 0, 0, 1, 1, 1, 1, 1, 1, 1, 1, 1, 1, 1, 1, 1, 1, 1, 1
Branch Status: 2
Branch- 0: 2, 2, 2, 2, 2, 2, 2, 2, 2, 2, 0, 0, 0, 0, 0, 0, 1, 1, 1, 1, 1, 1, 1, 1, 1, 1, 1, 1, 1, 1, 1, 1
Branch Status: 2
Branch- 0: 2, 2, 2, 2, 2, 2, 2, 2, 2, 2, 0, 0, 0, 0, 0, 0, 1, 1, 1, 1, 1, 1, 1, 1, 1, 1, 1, 1, 1, 1, 1, 1
Branch Status: 2
Branch- 0: 2, 2, 2, 2, 2, 2, 2, 2, 2, 2, 2, 0, 0, 0, 0, 0, 1, 1, 1, 1, 1, 1, 1, 1, 1, 1, 1, 1, 1, 1, 1, 1
GPGPU-Sim uArch: cycles simulated: 33500  inst.: 41261 (ipc= 1.2) sim_rate=20630 (inst/sec) elapsed = 0:0:00:02 / Wed Dec  9 00:08:30 2015
Branch Status: 2
Branch- 0: 2, 2, 2, 2, 2, 2, 2, 2, 2, 2, 2, 0, 0, 0, 0, 0, 1, 1, 1, 1, 1, 1, 1, 1, 1, 1, 1, 1, 1, 1, 1, 1
Branch Status: 2
Branch- 0: 2, 2, 2, 2, 2, 2, 2, 2, 2, 2, 2, 2, 0, 0, 0, 0, 1, 1, 1, 1, 1, 1, 1, 1, 1, 1, 1, 1, 1, 1, 1, 1
Branch Status: 2
Branch- 0: 2, 2, 2, 2, 2, 2, 2, 2, 2, 2, 2, 2, 0, 0, 0, 0, 1, 1, 1, 1, 1, 1, 1, 1, 1, 1, 1, 1, 1, 1, 1, 1
Branch Status: 2
Branch- 0: 2, 2, 2, 2, 2, 2, 2, 2, 2, 2, 2, 2, 2, 0, 0, 0, 1, 1, 1, 1, 1, 1, 1, 1, 1, 1, 1, 1, 1, 1, 1, 1
Branch Status: 2
Branch- 0: 2, 2, 2, 2, 2, 2, 2, 2, 2, 2, 2, 2, 2, 0, 0, 0, 1, 1, 1, 1, 1, 1, 1, 1, 1, 1, 1, 1, 1, 1, 1, 1
Branch Status: 2
Branch- 0: 2, 2, 2, 2, 2, 2, 2, 2, 2, 2, 2, 2, 2, 2, 0, 0, 1, 1, 1, 1, 1, 1, 1, 1, 1, 1, 1, 1, 1, 1, 1, 1
GPGPU-Sim uArch: cycles simulated: 51000  inst.: 51946 (ipc= 1.0) sim_rate=17315 (inst/sec) elapsed = 0:0:00:03 / Wed Dec  9 00:08:31 2015
Branch Status: 2
Branch- 0: 2, 2, 2, 2, 2, 2, 2, 2, 2, 2, 2, 2, 2, 2, 0, 0, 1, 1, 1, 1, 1, 1, 1, 1, 1, 1, 1, 1, 1, 1, 1, 1
Branch Status: 2
Branch- 0: 2, 2, 2, 2, 2, 2, 2, 2, 2, 2, 2, 2, 2, 2, 2, 0, 1, 1, 1, 1, 1, 1, 1, 1, 1, 1, 1, 1, 1, 1, 1, 1
Branch Status: 2
Branch- 0: 2, 2, 2, 2, 2, 2, 2, 2, 2, 2, 2, 2, 2, 2, 2, 0, 1, 1, 1, 1, 1, 1, 1, 1, 1, 1, 1, 1, 1, 1, 1, 1
GPGPU-Sim uArch: Shader 1 finished CTA #0 (63114,0), 0 CTAs running
GPGPU-Sim uArch: Shader 1 empty (release kernel 1 '_Z12lud_diagonalPfii').


BRANCH_STATS_PRINT: For Shader_id=1, Kernel(uid=1, name: '_Z12lud_diagonalPfii').
------------------------------------------------------------------------------------------------
          PC         TYPE       TARGET  INSTANCES        TAKEN       OCCUPANCY    DYN_COUNT
------------------------------------------------------------------------------------------------
          60    extrinsic           f8        272     0.058824        0.029412           17
          f0    extrinsic           50        256     1.000000        0.500000           16
         118    intrinsic          4a8        256     0.062500        0.031250           16
         138    intrinsic          348        240     0.500000        0.250000           15
         158    intrinsic          248        680     0.176471        0.031250          120
         368    intrinsic          490        240     0.500000        0.250000           15
         390    intrinsic          490        800     0.150000        0.027778          135
         488    intrinsic          378        680     1.000000        0.177083          120
         4a0    intrinsic          108        240     1.000000        0.500000           15
         240    intrinsic          148        560     1.000000        0.166667          105
         4d0    extrinsic          568        256     0.062500        0.031250           16
         560    extrinsic          4c0        240     1.000000        0.500000           15


GPGPU-Sim uArch: GPU detected kernel '_Z12lud_diagonalPfii' finished on shader 1.


BRANCH_STATS_PRINT: For Kernel(uid=1, name: '_Z12lud_diagonalPfii').
------------------------------------------------------------------------------------------------
          PC         TYPE       TARGET  INSTANCES        TAKEN       OCCUPANCY    DYN_COUNT
------------------------------------------------------------------------------------------------
          60    extrinsic           f8        272     0.058824        0.029412           17
          f0    extrinsic           50        256     1.000000        0.500000           16
         118    intrinsic          4a8        256     0.062500        0.031250           16
         138    intrinsic          348        240     0.500000        0.250000           15
         158    intrinsic          248        680     0.176471        0.031250          120
         368    intrinsic          490        240     0.500000        0.250000           15
         390    intrinsic          490        800     0.150000        0.027778          135
         488    intrinsic          378        680     1.000000        0.177083          120
         4a0    intrinsic          108        240     1.000000        0.500000           15
         240    intrinsic          148        560     1.000000        0.166667          105
         4d0    extrinsic          568        256     0.062500        0.031250           16
         560    extrinsic          4c0        240     1.000000        0.500000           15


Thread stats:
      ACTIVE,    EXTRINSIC,    INTRINSIC

       61704,       146208,        84760

kernel_name = _Z12lud_diagonalPfii 
kernel_launch_uid = 1 
gpu_sim_cycle = 63115
gpu_sim_insn = 59360
gpu_ipc =       0.9405
gpu_tot_sim_cycle = 63115
gpu_tot_sim_insn = 59360
gpu_tot_ipc =       0.9405
gpu_tot_issued_cta = 0
gpu_stall_dramfull = 0
gpu_stall_icnt2sh    = 0
gpu_total_sim_rate=19786

========= Core cache stats =========
L1I_cache:
	L1I_total_cache_accesses = 4820
	L1I_total_cache_misses = 11
	L1I_total_cache_miss_rate = 0.0023
	L1I_total_cache_pending_hits = 0
	L1I_total_cache_reservation_fails = 0
L1D_cache:
	L1D_cache_core[0]: Access = 0, Miss = 0, Miss_rate = -nan, Pending_hits = 0, Reservation_fails = 0
	L1D_cache_core[1]: Access = 121, Miss = 64, Miss_rate = 0.529, Pending_hits = 0, Reservation_fails = 0
	L1D_cache_core[2]: Access = 0, Miss = 0, Miss_rate = -nan, Pending_hits = 0, Reservation_fails = 0
	L1D_cache_core[3]: Access = 0, Miss = 0, Miss_rate = -nan, Pending_hits = 0, Reservation_fails = 0
	L1D_cache_core[4]: Access = 0, Miss = 0, Miss_rate = -nan, Pending_hits = 0, Reservation_fails = 0
	L1D_cache_core[5]: Access = 0, Miss = 0, Miss_rate = -nan, Pending_hits = 0, Reservation_fails = 0
	L1D_cache_core[6]: Access = 0, Miss = 0, Miss_rate = -nan, Pending_hits = 0, Reservation_fails = 0
	L1D_cache_core[7]: Access = 0, Miss = 0, Miss_rate = -nan, Pending_hits = 0, Reservation_fails = 0
	L1D_cache_core[8]: Access = 0, Miss = 0, Miss_rate = -nan, Pending_hits = 0, Reservation_fails = 0
	L1D_cache_core[9]: Access = 0, Miss = 0, Miss_rate = -nan, Pending_hits = 0, Reservation_fails = 0
	L1D_cache_core[10]: Access = 0, Miss = 0, Miss_rate = -nan, Pending_hits = 0, Reservation_fails = 0
	L1D_cache_core[11]: Access = 0, Miss = 0, Miss_rate = -nan, Pending_hits = 0, Reservation_fails = 0
	L1D_cache_core[12]: Access = 0, Miss = 0, Miss_rate = -nan, Pending_hits = 0, Reservation_fails = 0
	L1D_cache_core[13]: Access = 0, Miss = 0, Miss_rate = -nan, Pending_hits = 0, Reservation_fails = 0
	L1D_cache_core[14]: Access = 0, Miss = 0, Miss_rate = -nan, Pending_hits = 0, Reservation_fails = 0
	L1D_total_cache_accesses = 121
	L1D_total_cache_misses = 64
	L1D_total_cache_miss_rate = 0.5289
	L1D_total_cache_pending_hits = 0
	L1D_total_cache_reservation_fails = 0
	L1D_cache_data_port_util = 0.001
	L1D_cache_fill_port_util = 0.000
L1C_cache:
	L1C_total_cache_accesses = 3
	L1C_total_cache_misses = 3
	L1C_total_cache_miss_rate = 1.0000
	L1C_total_cache_pending_hits = 0
	L1C_total_cache_reservation_fails = 0
L1T_cache:
	L1T_total_cache_accesses = 0
	L1T_total_cache_misses = 0
	L1T_total_cache_pending_hits = 0
	L1T_total_cache_reservation_fails = 0

Total_core_cache_stats:
	Total_core_cache_stats_breakdown[GLOBAL_ACC_R][MISS] = 16
	Total_core_cache_stats_breakdown[LOCAL_ACC_R][HIT] = 42
	Total_core_cache_stats_breakdown[LOCAL_ACC_R][MISS] = 3
	Total_core_cache_stats_breakdown[CONST_ACC_R][MISS] = 3
	Total_core_cache_stats_breakdown[GLOBAL_ACC_W][HIT] = 15
	Total_core_cache_stats_breakdown[LOCAL_ACC_W][MISS] = 45
	Total_core_cache_stats_breakdown[INST_ACC_R][HIT] = 4809
	Total_core_cache_stats_breakdown[INST_ACC_R][MISS] = 11
Shader 0 warp_id issue ditsribution:
warp_id:

distro:

gpgpu_n_tot_thrd_icount = 292672
gpgpu_n_tot_w_icount = 9146
gpgpu_n_stall_shd_mem = 707
gpgpu_n_mem_read_local = 3
gpgpu_n_mem_write_local = 45
gpgpu_n_mem_read_global = 16
gpgpu_n_mem_write_global = 15
gpgpu_n_mem_texture = 0
gpgpu_n_mem_const = 1
gpgpu_n_load_insn  = 256
gpgpu_n_store_insn = 240
gpgpu_n_shmem_insn = 5816
gpgpu_n_tex_insn = 0
gpgpu_n_const_mem_insn = 0
gpgpu_n_param_mem_insn = 768
gpgpu_n_shmem_bkconflict = 0
gpgpu_n_cache_bkconflict = 0
gpgpu_n_intrawarp_mshr_merge = 0
gpgpu_n_cmem_portconflict = 0
gpgpu_stall_shd_mem[c_mem][bk_conf] = 0
gpgpu_stall_shd_mem[c_mem][mshr_rc] = 0
gpgpu_stall_shd_mem[c_mem][icnt_rc] = 0
gpgpu_stall_shd_mem[c_mem][data_port_stall] = 0
gpgpu_stall_shd_mem[t_mem][mshr_rc] = 0
gpgpu_stall_shd_mem[t_mem][icnt_rc] = 0
gpgpu_stall_shd_mem[t_mem][data_port_stall] = 0
gpgpu_stall_shd_mem[s_mem][bk_conf] = 707
gpgpu_stall_shd_mem[gl_mem][bk_conf] = 0
gpgpu_stall_shd_mem[gl_mem][coal_stall] = 0
gpgpu_stall_shd_mem[gl_mem][data_port_stall] = 0
gpgpu_stall_shd_mem[g_mem_ld][mshr_rc] = 0
gpgpu_stall_shd_mem[g_mem_ld][icnt_rc] = 0
gpgpu_stall_shd_mem[g_mem_ld][wb_icnt_rc] = 0
gpgpu_stall_shd_mem[g_mem_ld][wb_rsrv_fail] = 0
gpgpu_stall_shd_mem[g_mem_st][mshr_rc] = 0
gpgpu_stall_shd_mem[g_mem_st][icnt_rc] = 0
gpgpu_stall_shd_mem[g_mem_st][wb_icnt_rc] = 0
gpgpu_stall_shd_mem[g_mem_st][wb_rsrv_fail] = 0
gpgpu_stall_shd_mem[l_mem_ld][mshr_rc] = 0
gpgpu_stall_shd_mem[l_mem_ld][icnt_rc] = 0
gpgpu_stall_shd_mem[l_mem_ld][wb_icnt_rc] = 0
gpgpu_stall_shd_mem[l_mem_ld][wb_rsrv_fail] = 0
gpgpu_stall_shd_mem[l_mem_st][mshr_rc] = 0
gpgpu_stall_shd_mem[l_mem_st][icnt_rc] = 0
gpgpu_stall_shd_mem[l_mem_ld][wb_icnt_rc] = 0
gpgpu_stall_shd_mem[l_mem_ld][wb_rsrv_fail] = 0
gpu_reg_bank_conflict_stalls = 0
Warp Occupancy Distribution:
Stall:0	W0_Idle:71341	W0_Scoreboard:45771	W1:1019	W2:952	W3:885	W4:818	W5:751	W6:684	W7:617	W8:550	W9:483	W10:416	W11:349	W12:282	W13:215	W14:148	W15:81	W16:896	W17:0	W18:0	W19:0	W20:0	W21:0	W22:0	W23:0	W24:0	W25:0	W26:0	W27:0	W28:0	W29:0	W30:0	W31:0	W32:0
traffic_breakdown_coretomem[CONST_ACC_R] = 8 {8:1,}
traffic_breakdown_coretomem[GLOBAL_ACC_R] = 128 {8:16,}
traffic_breakdown_coretomem[GLOBAL_ACC_W] = 1080 {72:15,}
traffic_breakdown_coretomem[INST_ACC_R] = 88 {8:11,}
traffic_breakdown_coretomem[LOCAL_ACC_R] = 24 {8:3,}
traffic_breakdown_coretomem[LOCAL_ACC_W] = 2472 {40:24,72:21,}
traffic_breakdown_memtocore[CONST_ACC_R] = 72 {72:1,}
traffic_breakdown_memtocore[GLOBAL_ACC_R] = 2176 {136:16,}
traffic_breakdown_memtocore[GLOBAL_ACC_W] = 120 {8:15,}
traffic_breakdown_memtocore[INST_ACC_R] = 1496 {136:11,}
traffic_breakdown_memtocore[LOCAL_ACC_R] = 408 {136:3,}
traffic_breakdown_memtocore[LOCAL_ACC_W] = 360 {8:45,}
maxmrqlatency = 28 
maxdqlatency = 0 
maxmflatency = 279 
averagemflatency = 176 
max_icnt2mem_latency = 11 
max_icnt2sh_latency = 63114 
mrq_lat_table:34 	0 	2 	0 	1 	0 	0 	0 	0 	0 	0 	0 	0 	0 	0 	0 	0 	0 	0 	0 	0 	0 	0 	0 	0 	0 	0 	0 	0 	0 	0 	0 	
dq_lat_table:0 	0 	0 	0 	0 	0 	0 	0 	0 	0 	0 	0 	0 	0 	0 	0 	0 	0 	0 	0 	0 	0 	0 	0 	0 	0 	0 	0 	0 	0 	0 	0 	
mf_lat_table:0 	0 	0 	0 	0 	0 	0 	59 	21 	0 	0 	0 	0 	0 	0 	0 	0 	0 	0 	0 	0 	0 	0 	0 	0 	0 	0 	0 	0 	0 	0 	0 	
icnt2mem_lat_table:0 	0 	0 	91 	0 	0 	0 	0 	0 	0 	0 	0 	0 	0 	0 	0 	0 	0 	0 	0 	0 	0 	0 	0 	
icnt2sh_lat_table:0 	0 	0 	20 	0 	0 	0 	0 	0 	0 	0 	0 	3 	12 	15 	30 	0 	0 	0 	0 	0 	0 	0 	0 	
mf_lat_pw_table:0 	0 	0 	0 	0 	0 	0 	19 	15 	0 	0 	0 	0 	0 	0 	0 	0 	0 	0 	0 	0 	0 	0 	0 	0 	0 	0 	0 	0 	0 	0 	0 	
maximum concurrent accesses to same row:
dram[0]:         1         0         0         0         0         0         0         0         0         0         0         0         0         0         0         0 
dram[1]:         0         0         0         0         0         0         0         0         0         0         0         0         0         0         0         0 
dram[2]:         2         0         0         0         0         0         0         0         0         0         0         0         0         0         0         0 
dram[3]:         1         0         0         0         0         0         0         0         0         0         0         0         0         0         0         0 
dram[4]:         0         0         0         0         0         0         0         0         0         0         0         0         0         0         0         0 
dram[5]:         0         0         0         0         0         0         0         0         0         0         0         0         0         0         0         0 
maximum service time to same row:
dram[0]:      6618      7457         0         0      1472         0         0         0         0         0         0         0         0         0         0         0 
dram[1]:      6468         0         0         0         0         0         0         0         0         0         0         0         0         0         0         0 
dram[2]:      6797      7456         0         0         0      1128         0         0         0         0         0         0         0         0         0         0 
dram[3]:      7787         0         0         0         0         0         0         0         0         0         0         0         0         0         0         0 
dram[4]:      8729         0         0         0      1816         0         0         0         0         0         0         0         0         0         0         0 
dram[5]:     61216      7791         0         0         0         0         0         0         0         0         0         0         0         0         0         0 
average row accesses per activate:
dram[0]:  1.250000  1.000000      -nan      -nan  5.000000      -nan      -nan      -nan      -nan      -nan      -nan      -nan      -nan      -nan      -nan      -nan 
dram[1]:  2.000000      -nan      -nan      -nan      -nan      -nan      -nan      -nan      -nan      -nan      -nan      -nan      -nan      -nan      -nan      -nan 
dram[2]:  1.500000  2.000000      -nan      -nan      -nan  6.000000      -nan      -nan      -nan      -nan      -nan      -nan      -nan      -nan      -nan      -nan 
dram[3]:  1.000000      -nan      -nan      -nan      -nan      -nan      -nan      -nan      -nan      -nan      -nan      -nan      -nan      -nan      -nan      -nan 
dram[4]:  2.000000      -nan      -nan      -nan  5.000000      -nan      -nan      -nan      -nan      -nan      -nan      -nan      -nan      -nan      -nan      -nan 
dram[5]:  1.000000  2.000000      -nan      -nan      -nan      -nan      -nan      -nan      -nan      -nan      -nan      -nan      -nan      -nan      -nan      -nan 
average row locality = 37/18 = 2.055556
number of total memory accesses made:
dram[0]:         0         0         0         0         0         0         0         0         0         0         0         0         0         0         0         0 
dram[1]:         0         0         0         0         0         0         0         0         0         0         0         0         0         0         0         0 
dram[2]:         0         0         0         0         0         0         0         0         0         0         0         0         0         0         0         0 
dram[3]:         0         0         0         0         0         0         0         0         0         0         0         0         0         0         0         0 
dram[4]:         0         0         0         0         0         0         0         0         0         0         0         0         0         0         0         0 
dram[5]:         0         0         0         0         0         0         0         0         0         0         0         0         0         0         0         0 
total accesses: 0
min_bank_accesses = 0!
min_chip_accesses = 0!
number of total read accesses:
dram[0]:         4         1         0         0         5         0         0         0         0         0         0         0         0         0         0         0 
dram[1]:         2         0         0         0         0         0         0         0         0         0         0         0         0         0         0         0 
dram[2]:         3         1         0         0         0         6         0         0         0         0         0         0         0         0         0         0 
dram[3]:         3         0         0         0         0         0         0         0         0         0         0         0         0         0         0         0 
dram[4]:         2         0         0         0         5         0         0         0         0         0         0         0         0         0         0         0 
dram[5]:         1         1         0         0         0         0         0         0         0         0         0         0         0         0         0         0 
total reads: 34
min_bank_accesses = 0!
chip skew: 10/2 = 5.00
number of total write accesses:
dram[0]:         1         0         0         0         0         0         0         0         0         0         0         0         0         0         0         0 
dram[1]:         0         0         0         0         0         0         0         0         0         0         0         0         0         0         0         0 
dram[2]:         0         1         0         0         0         0         0         0         0         0         0         0         0         0         0         0 
dram[3]:         0         0         0         0         0         0         0         0         0         0         0         0         0         0         0         0 
dram[4]:         0         0         0         0         0         0         0         0         0         0         0         0         0         0         0         0 
dram[5]:         0         1         0         0         0         0         0         0         0         0         0         0         0         0         0         0 
total reads: 3
min_bank_accesses = 0!
min_chip_accesses = 0!
average mf latency per bank:
dram[0]:        504       268    none      none         401    none      none      none      none      none      none      none      none      none      none      none  
dram[1]:          0    none      none      none      none      none      none      none      none      none      none      none      none      none      none      none  
dram[2]:         92      1109    none      none      none         378    none      none      none      none      none      none      none      none      none      none  
dram[3]:         92    none      none      none      none      none      none      none      none      none      none      none      none      none      none      none  
dram[4]:          0    none      none      none         401    none      none      none      none      none      none      none      none      none      none      none  
dram[5]:          0      1109    none      none      none      none      none      none      none      none      none      none      none      none      none      none  
maximum mf latency per bank:
dram[0]:        279       268         0         0       268         0         0         0         0         0         0         0         0         0         0         0
dram[1]:          0         0         0         0         0         0         0         0         0         0         0         0         0         0         0         0
dram[2]:        278       253         0         0         0       268         0         0         0         0         0         0         0         0         0         0
dram[3]:        277         0         0         0         0         0         0         0         0         0         0         0         0         0         0         0
dram[4]:          0         0         0         0       268         0         0         0         0         0         0         0         0         0         0         0
dram[5]:          0       253         0         0         0         0         0         0         0         0         0         0         0         0         0         0
Memory Partition 0: 
Cache L2_bank_000:
MSHR contents

Cache L2_bank_001:
MSHR contents

In Dram Latency Queue (total = 0): 
DRAM[0]: 16 bks, busW=4 BL=8 CL=12, tRRD=2 tCCD=6, tRCD=12 tRAS=28 tRP=12 tRC=40
n_cmd=83311 n_nop=83281 n_act=6 n_pre=3 n_req=11 n_rd=20 n_write=1 bw_util=0.0005041
n_activity=306 dram_eff=0.1373
bk0: 8a 83188i bk1: 2a 83292i bk2: 0a 83311i bk3: 0a 83311i bk4: 10a 83278i bk5: 0a 83309i bk6: 0a 83309i bk7: 0a 83309i bk8: 0a 83311i bk9: 0a 83311i bk10: 0a 83312i bk11: 0a 83312i bk12: 0a 83312i bk13: 0a 83312i bk14: 0a 83312i bk15: 0a 83312i 
dram_util_bins: 0 0 0 0 0 0 0 0 0 0
dram_eff_bins: 0 0 0 0 0 0 0 0 0 0
mrqq: max=1 avg=0.000420113
Memory Partition 1: 
Cache L2_bank_002:
MSHR contents

Cache L2_bank_003:
MSHR contents

In Dram Latency Queue (total = 0): 
DRAM[1]: 16 bks, busW=4 BL=8 CL=12, tRRD=2 tCCD=6, tRCD=12 tRAS=28 tRP=12 tRC=40
n_cmd=83311 n_nop=83306 n_act=1 n_pre=0 n_req=2 n_rd=4 n_write=0 bw_util=9.603e-05
n_activity=55 dram_eff=0.1455
bk0: 4a 83291i bk1: 0a 83311i bk2: 0a 83311i bk3: 0a 83311i bk4: 0a 83311i bk5: 0a 83311i bk6: 0a 83311i bk7: 0a 83311i bk8: 0a 83311i bk9: 0a 83311i bk10: 0a 83311i bk11: 0a 83311i bk12: 0a 83311i bk13: 0a 83311i bk14: 0a 83311i bk15: 0a 83311i 
dram_util_bins: 0 0 0 0 0 0 0 0 0 0
dram_eff_bins: 0 0 0 0 0 0 0 0 0 0
mrqq: max=0 avg=0
Memory Partition 2: 
Cache L2_bank_004:
MSHR contents

Cache L2_bank_005:
MSHR contents

In Dram Latency Queue (total = 0): 
DRAM[2]: 16 bks, busW=4 BL=8 CL=12, tRRD=2 tCCD=6, tRCD=12 tRAS=28 tRP=12 tRC=40
n_cmd=83311 n_nop=83285 n_act=4 n_pre=1 n_req=11 n_rd=20 n_write=1 bw_util=0.0005041
n_activity=227 dram_eff=0.185
bk0: 6a 83263i bk1: 2a 83289i bk2: 0a 83309i bk3: 0a 83311i bk4: 0a 83311i bk5: 12a 83274i bk6: 0a 83310i bk7: 0a 83310i bk8: 0a 83310i bk9: 0a 83310i bk10: 0a 83310i bk11: 0a 83311i bk12: 0a 83312i bk13: 0a 83312i bk14: 0a 83312i bk15: 0a 83313i 
dram_util_bins: 0 0 0 0 0 0 0 0 0 0
dram_eff_bins: 0 0 0 0 0 0 0 0 0 0
mrqq: max=1 avg=8.40225e-05
Memory Partition 3: 
Cache L2_bank_006:
MSHR contents

Cache L2_bank_007:
MSHR contents

In Dram Latency Queue (total = 0): 
DRAM[3]: 16 bks, busW=4 BL=8 CL=12, tRRD=2 tCCD=6, tRCD=12 tRAS=28 tRP=12 tRC=40
n_cmd=83311 n_nop=83300 n_act=3 n_pre=2 n_req=3 n_rd=6 n_write=0 bw_util=0.000144
n_activity=144 dram_eff=0.08333
bk0: 6a 83239i bk1: 0a 83309i bk2: 0a 83311i bk3: 0a 83311i bk4: 0a 83311i bk5: 0a 83311i bk6: 0a 83311i bk7: 0a 83311i bk8: 0a 83311i bk9: 0a 83311i bk10: 0a 83311i bk11: 0a 83311i bk12: 0a 83311i bk13: 0a 83311i bk14: 0a 83311i bk15: 0a 83311i 
dram_util_bins: 0 0 0 0 0 0 0 0 0 0
dram_eff_bins: 0 0 0 0 0 0 0 0 0 0
mrqq: max=0 avg=0
Memory Partition 4: 
Cache L2_bank_008:
MSHR contents

Cache L2_bank_009:
MSHR contents

In Dram Latency Queue (total = 0): 
DRAM[4]: 16 bks, busW=4 BL=8 CL=12, tRRD=2 tCCD=6, tRCD=12 tRAS=28 tRP=12 tRC=40
n_cmd=83311 n_nop=83295 n_act=2 n_pre=0 n_req=7 n_rd=14 n_write=0 bw_util=0.0003361
n_activity=155 dram_eff=0.1806
bk0: 4a 83291i bk1: 0a 83311i bk2: 0a 83311i bk3: 0a 83311i bk4: 10a 83278i bk5: 0a 83309i bk6: 0a 83309i bk7: 0a 83309i bk8: 0a 83310i bk9: 0a 83311i bk10: 0a 83312i bk11: 0a 83312i bk12: 0a 83312i bk13: 0a 83312i bk14: 0a 83312i bk15: 0a 83312i 
dram_util_bins: 0 0 0 0 0 0 0 0 0 0
dram_eff_bins: 0 0 0 0 0 0 0 0 0 0
mrqq: max=0 avg=0
Memory Partition 5: 
Cache L2_bank_010:
MSHR contents

Cache L2_bank_011:
MSHR contents

In Dram Latency Queue (total = 0): 
DRAM[5]: 16 bks, busW=4 BL=8 CL=12, tRRD=2 tCCD=6, tRCD=12 tRAS=28 tRP=12 tRC=40
n_cmd=83311 n_nop=83304 n_act=2 n_pre=0 n_req=3 n_rd=4 n_write=1 bw_util=0.00012
n_activity=80 dram_eff=0.125
bk0: 2a 83295i bk1: 2a 83288i bk2: 0a 83309i bk3: 0a 83310i bk4: 0a 83311i bk5: 0a 83311i bk6: 0a 83311i bk7: 0a 83311i bk8: 0a 83311i bk9: 0a 83311i bk10: 0a 83311i bk11: 0a 83311i bk12: 0a 83311i bk13: 0a 83311i bk14: 0a 83312i bk15: 0a 83312i 
dram_util_bins: 0 0 0 0 0 0 0 0 0 0
dram_eff_bins: 0 0 0 0 0 0 0 0 0 0
mrqq: max=1 avg=8.40225e-05

========= L2 cache stats =========
L2_cache_bank[0]: Access = 28, Miss = 9, Miss_rate = 0.321, Pending_hits = 0, Reservation_fails = 0
L2_cache_bank[1]: Access = 1, Miss = 1, Miss_rate = 1.000, Pending_hits = 0, Reservation_fails = 0
L2_cache_bank[2]: Access = 2, Miss = 2, Miss_rate = 1.000, Pending_hits = 0, Reservation_fails = 0
L2_cache_bank[3]: Access = 0, Miss = 0, Miss_rate = -nan, Pending_hits = 0, Reservation_fails = 0
L2_cache_bank[4]: Access = 3, Miss = 3, Miss_rate = 1.000, Pending_hits = 0, Reservation_fails = 0
L2_cache_bank[5]: Access = 26, Miss = 7, Miss_rate = 0.269, Pending_hits = 0, Reservation_fails = 0
L2_cache_bank[6]: Access = 3, Miss = 3, Miss_rate = 1.000, Pending_hits = 0, Reservation_fails = 0
L2_cache_bank[7]: Access = 0, Miss = 0, Miss_rate = -nan, Pending_hits = 0, Reservation_fails = 0
L2_cache_bank[8]: Access = 12, Miss = 7, Miss_rate = 0.583, Pending_hits = 0, Reservation_fails = 0
L2_cache_bank[9]: Access = 0, Miss = 0, Miss_rate = -nan, Pending_hits = 0, Reservation_fails = 0
L2_cache_bank[10]: Access = 1, Miss = 1, Miss_rate = 1.000, Pending_hits = 0, Reservation_fails = 0
L2_cache_bank[11]: Access = 15, Miss = 1, Miss_rate = 0.067, Pending_hits = 0, Reservation_fails = 0
L2_total_cache_accesses = 91
L2_total_cache_misses = 34
L2_total_cache_miss_rate = 0.3736
L2_total_cache_pending_hits = 0
L2_total_cache_reservation_fails = 0
L2_total_cache_breakdown:
	L2_cache_stats_breakdown[GLOBAL_ACC_R][MISS] = 16
	L2_cache_stats_breakdown[LOCAL_ACC_R][MISS] = 3
	L2_cache_stats_breakdown[CONST_ACC_R][MISS] = 1
	L2_cache_stats_breakdown[GLOBAL_ACC_W][HIT] = 15
	L2_cache_stats_breakdown[LOCAL_ACC_W][HIT] = 42
	L2_cache_stats_breakdown[LOCAL_ACC_W][MISS] = 3
	L2_cache_stats_breakdown[INST_ACC_R][MISS] = 11
L2_cache_data_port_util = 0.000
L2_cache_fill_port_util = 0.000

icnt_total_pkts_mem_to_simt=213
icnt_total_pkts_simt_to_mem=187
LD_mem_lat_dist  0 0 0 0 0 0 0 0 0 0 0 0 0 0 0 0 0 0 0 0 0 0 0 0 0 0 0
ST_mem_lat_dist  0 0 0 0 0 0 0 0 0 0 0 0 0 0 0 0 0 0 0 0 0 0 0 0 0 0 0
----------------------------Interconnect-DETAILS--------------------------------
Class 0:
Packet latency average = 7.22527
	minimum = 6
	maximum = 10
Network latency average = 7.22527
	minimum = 6
	maximum = 10
Slowest packet = 1
Flit latency average = 6.0125
	minimum = 6
	maximum = 10
Slowest flit = 144
Fragmentation average = 0
	minimum = 0
	maximum = 0
Injected packet rate average = 0.000106801
	minimum = 0 (at node 0)
	maximum = 0.00144181 (at node 1)
Accepted packet rate average = 0.000106801
	minimum = 0 (at node 0)
	maximum = 0.00144181 (at node 1)
Injected flit rate average = 0.000234727
	minimum = 0 (at node 0)
	maximum = 0.00296285 (at node 1)
Accepted flit rate average= 0.000234727
	minimum = 0 (at node 0)
	maximum = 0.00337479 (at node 1)
Injected packet length average = 2.1978
Accepted packet length average = 2.1978
Total in-flight flits = 0 (0 measured)
====== Overall Traffic Statistics ======
====== Traffic class 0 ======
Packet latency average = 7.22527 (1 samples)
	minimum = 6 (1 samples)
	maximum = 10 (1 samples)
Network latency average = 7.22527 (1 samples)
	minimum = 6 (1 samples)
	maximum = 10 (1 samples)
Flit latency average = 6.0125 (1 samples)
	minimum = 6 (1 samples)
	maximum = 10 (1 samples)
Fragmentation average = 0 (1 samples)
	minimum = 0 (1 samples)
	maximum = 0 (1 samples)
Injected packet rate average = 0.000106801 (1 samples)
	minimum = 0 (1 samples)
	maximum = 0.00144181 (1 samples)
Accepted packet rate average = 0.000106801 (1 samples)
	minimum = 0 (1 samples)
	maximum = 0.00144181 (1 samples)
Injected flit rate average = 0.000234727 (1 samples)
	minimum = 0 (1 samples)
	maximum = 0.00296285 (1 samples)
Accepted flit rate average = 0.000234727 (1 samples)
	minimum = 0 (1 samples)
	maximum = 0.00337479 (1 samples)
Injected packet size average = 2.1978 (1 samples)
Accepted packet size average = 2.1978 (1 samples)
Hops average = 1 (1 samples)
----------------------------END-of-Interconnect-DETAILS-------------------------


gpgpu_simulation_time = 0 days, 0 hrs, 0 min, 3 sec (3 sec)
gpgpu_simulation_rate = 19786 (inst/sec)
gpgpu_simulation_rate = 21038 (cycle/sec)

GPGPU-Sim PTX: cudaLaunch for 0x0x402175 (mode=performance simulation) on stream 0
GPGPU-Sim PTX: pushing kernel '_Z13lud_perimeterPfii' to stream 0, gridDim= (15,1,1) blockDim = (32,1,1) 
kernel '_Z13lud_perimeterPfii' transfer to GPU hardware scheduler
GPGPU-Sim uArch: Shader 2 bind to kernel 2 '_Z13lud_perimeterPfii'
GPGPU-Sim uArch: CTA/core = 8, limited by: cta_limit
GPGPU-Sim uArch: core:  2, cta: 0 initialized @(1,63115)
GPGPU-Sim uArch: Shader 3 bind to kernel 2 '_Z13lud_perimeterPfii'
GPGPU-Sim uArch: core:  3, cta: 0 initialized @(1,63115)
GPGPU-Sim uArch: Shader 4 bind to kernel 2 '_Z13lud_perimeterPfii'
GPGPU-Sim uArch: core:  4, cta: 0 initialized @(1,63115)
GPGPU-Sim uArch: Shader 5 bind to kernel 2 '_Z13lud_perimeterPfii'
GPGPU-Sim uArch: core:  5, cta: 0 initialized @(1,63115)
GPGPU-Sim uArch: Shader 6 bind to kernel 2 '_Z13lud_perimeterPfii'
GPGPU-Sim uArch: core:  6, cta: 0 initialized @(1,63115)
GPGPU-Sim uArch: Shader 7 bind to kernel 2 '_Z13lud_perimeterPfii'
GPGPU-Sim uArch: core:  7, cta: 0 initialized @(1,63115)
GPGPU-Sim uArch: Shader 8 bind to kernel 2 '_Z13lud_perimeterPfii'
GPGPU-Sim uArch: core:  8, cta: 0 initialized @(1,63115)
GPGPU-Sim uArch: Shader 9 bind to kernel 2 '_Z13lud_perimeterPfii'
GPGPU-Sim uArch: core:  9, cta: 0 initialized @(1,63115)
GPGPU-Sim uArch: Shader 10 bind to kernel 2 '_Z13lud_perimeterPfii'
GPGPU-Sim uArch: core: 10, cta: 0 initialized @(1,63115)
GPGPU-Sim uArch: Shader 11 bind to kernel 2 '_Z13lud_perimeterPfii'
GPGPU-Sim uArch: core: 11, cta: 0 initialized @(1,63115)
GPGPU-Sim uArch: Shader 12 bind to kernel 2 '_Z13lud_perimeterPfii'
GPGPU-Sim uArch: core: 12, cta: 0 initialized @(1,63115)
GPGPU-Sim uArch: Shader 13 bind to kernel 2 '_Z13lud_perimeterPfii'
GPGPU-Sim uArch: core: 13, cta: 0 initialized @(1,63115)
GPGPU-Sim uArch: Shader 14 bind to kernel 2 '_Z13lud_perimeterPfii'
GPGPU-Sim uArch: core: 14, cta: 0 initialized @(1,63115)
GPGPU-Sim uArch: Shader 0 bind to kernel 2 '_Z13lud_perimeterPfii'
GPGPU-Sim uArch: core:  0, cta: 0 initialized @(1,63115)
GPGPU-Sim uArch: Shader 1 bind to kernel 2 '_Z13lud_perimeterPfii'
GPGPU-Sim uArch: core:  1, cta: 0 initialized @(1,63115)
Branch Status: 1
Branch- 0: 0, 0, 0, 0, 0, 0, 0, 0, 0, 0, 0, 0, 0, 0, 0, 0, 1, 1, 1, 1, 1, 1, 1, 1, 1, 1, 1, 1, 1, 1, 1, 1
Branch- 1: 1, 1, 1, 1, 1, 1, 1, 1, 1, 1, 1, 1, 1, 1, 1, 1, 0, 0, 0, 0, 0, 0, 0, 0, 0, 0, 0, 0, 0, 0, 0, 0
Branch Status: 1
Branch- 0: 0, 0, 0, 0, 0, 0, 0, 0, 0, 0, 0, 0, 0, 0, 0, 0, 1, 1, 1, 1, 1, 1, 1, 1, 1, 1, 1, 1, 1, 1, 1, 1
Branch- 1: 1, 1, 1, 1, 1, 1, 1, 1, 1, 1, 1, 1, 1, 1, 1, 1, 0, 0, 0, 0, 0, 0, 0, 0, 0, 0, 0, 0, 0, 0, 0, 0
Branch Status: 1
Branch- 0: 0, 0, 0, 0, 0, 0, 0, 0, 0, 0, 0, 0, 0, 0, 0, 0, 1, 1, 1, 1, 1, 1, 1, 1, 1, 1, 1, 1, 1, 1, 1, 1
Branch- 1: 1, 1, 1, 1, 1, 1, 1, 1, 1, 1, 1, 1, 1, 1, 1, 1, 0, 0, 0, 0, 0, 0, 0, 0, 0, 0, 0, 0, 0, 0, 0, 0
Branch Status: 1
Branch- 0: 0, 0, 0, 0, 0, 0, 0, 0, 0, 0, 0, 0, 0, 0, 0, 0, 1, 1, 1, 1, 1, 1, 1, 1, 1, 1, 1, 1, 1, 1, 1, 1
Branch- 1: 1, 1, 1, 1, 1, 1, 1, 1, 1, 1, 1, 1, 1, 1, 1, 1, 0, 0, 0, 0, 0, 0, 0, 0, 0, 0, 0, 0, 0, 0, 0, 0
Branch Status: 1
Branch- 0: 0, 0, 0, 0, 0, 0, 0, 0, 0, 0, 0, 0, 0, 0, 0, 0, 1, 1, 1, 1, 1, 1, 1, 1, 1, 1, 1, 1, 1, 1, 1, 1
Branch- 1: 1, 1, 1, 1, 1, 1, 1, 1, 1, 1, 1, 1, 1, 1, 1, 1, 0, 0, 0, 0, 0, 0, 0, 0, 0, 0, 0, 0, 0, 0, 0, 0
Branch Status: 1
Branch- 0: 0, 0, 0, 0, 0, 0, 0, 0, 0, 0, 0, 0, 0, 0, 0, 0, 1, 1, 1, 1, 1, 1, 1, 1, 1, 1, 1, 1, 1, 1, 1, 1
Branch- 1: 1, 1, 1, 1, 1, 1, 1, 1, 1, 1, 1, 1, 1, 1, 1, 1, 0, 0, 0, 0, 0, 0, 0, 0, 0, 0, 0, 0, 0, 0, 0, 0
Branch Status: 1
Branch- 0: 0, 0, 0, 0, 0, 0, 0, 0, 0, 0, 0, 0, 0, 0, 0, 0, 1, 1, 1, 1, 1, 1, 1, 1, 1, 1, 1, 1, 1, 1, 1, 1
Branch- 1: 1, 1, 1, 1, 1, 1, 1, 1, 1, 1, 1, 1, 1, 1, 1, 1, 0, 0, 0, 0, 0, 0, 0, 0, 0, 0, 0, 0, 0, 0, 0, 0
Branch Status: 1
Branch- 0: 0, 0, 0, 0, 0, 0, 0, 0, 0, 0, 0, 0, 0, 0, 0, 0, 1, 1, 1, 1, 1, 1, 1, 1, 1, 1, 1, 1, 1, 1, 1, 1
Branch- 1: 1, 1, 1, 1, 1, 1, 1, 1, 1, 1, 1, 1, 1, 1, 1, 1, 0, 0, 0, 0, 0, 0, 0, 0, 0, 0, 0, 0, 0, 0, 0, 0
Branch Status: 1
Branch- 0: 0, 0, 0, 0, 0, 0, 0, 0, 0, 0, 0, 0, 0, 0, 0, 0, 1, 1, 1, 1, 1, 1, 1, 1, 1, 1, 1, 1, 1, 1, 1, 1
Branch- 1: 1, 1, 1, 1, 1, 1, 1, 1, 1, 1, 1, 1, 1, 1, 1, 1, 0, 0, 0, 0, 0, 0, 0, 0, 0, 0, 0, 0, 0, 0, 0, 0
Branch Status: 1
Branch- 0: 0, 0, 0, 0, 0, 0, 0, 0, 0, 0, 0, 0, 0, 0, 0, 0, 1, 1, 1, 1, 1, 1, 1, 1, 1, 1, 1, 1, 1, 1, 1, 1
Branch- 1: 1, 1, 1, 1, 1, 1, 1, 1, 1, 1, 1, 1, 1, 1, 1, 1, 0, 0, 0, 0, 0, 0, 0, 0, 0, 0, 0, 0, 0, 0, 0, 0
Branch Status: 1
Branch- 0: 0, 0, 0, 0, 0, 0, 0, 0, 0, 0, 0, 0, 0, 0, 0, 0, 1, 1, 1, 1, 1, 1, 1, 1, 1, 1, 1, 1, 1, 1, 1, 1
Branch- 1: 1, 1, 1, 1, 1, 1, 1, 1, 1, 1, 1, 1, 1, 1, 1, 1, 0, 0, 0, 0, 0, 0, 0, 0, 0, 0, 0, 0, 0, 0, 0, 0
Branch Status: 1
Branch- 0: 0, 0, 0, 0, 0, 0, 0, 0, 0, 0, 0, 0, 0, 0, 0, 0, 1, 1, 1, 1, 1, 1, 1, 1, 1, 1, 1, 1, 1, 1, 1, 1
Branch- 1: 1, 1, 1, 1, 1, 1, 1, 1, 1, 1, 1, 1, 1, 1, 1, 1, 0, 0, 0, 0, 0, 0, 0, 0, 0, 0, 0, 0, 0, 0, 0, 0
Branch Status: 1
Branch- 0: 0, 0, 0, 0, 0, 0, 0, 0, 0, 0, 0, 0, 0, 0, 0, 0, 1, 1, 1, 1, 1, 1, 1, 1, 1, 1, 1, 1, 1, 1, 1, 1
Branch- 1: 1, 1, 1, 1, 1, 1, 1, 1, 1, 1, 1, 1, 1, 1, 1, 1, 0, 0, 0, 0, 0, 0, 0, 0, 0, 0, 0, 0, 0, 0, 0, 0
Branch Status: 1
Branch- 0: 0, 0, 0, 0, 0, 0, 0, 0, 0, 0, 0, 0, 0, 0, 0, 0, 1, 1, 1, 1, 1, 1, 1, 1, 1, 1, 1, 1, 1, 1, 1, 1
Branch- 1: 1, 1, 1, 1, 1, 1, 1, 1, 1, 1, 1, 1, 1, 1, 1, 1, 0, 0, 0, 0, 0, 0, 0, 0, 0, 0, 0, 0, 0, 0, 0, 0
Branch Status: 1
Branch- 0: 0, 0, 0, 0, 0, 0, 0, 0, 0, 0, 0, 0, 0, 0, 0, 0, 1, 1, 1, 1, 1, 1, 1, 1, 1, 1, 1, 1, 1, 1, 1, 1
Branch- 1: 1, 1, 1, 1, 1, 1, 1, 1, 1, 1, 1, 1, 1, 1, 1, 1, 0, 0, 0, 0, 0, 0, 0, 0, 0, 0, 0, 0, 0, 0, 0, 0
GPGPU-Sim uArch: cycles simulated: 64115  inst.: 66096 (ipc= 6.7) sim_rate=16524 (inst/sec) elapsed = 0:0:00:04 / Wed Dec  9 00:08:32 2015
GPGPU-Sim PTX: 100000 instructions simulated : ctaid=(2,0,0) tid=(23,0,0)
GPGPU-Sim uArch: cycles simulated: 69615  inst.: 146480 (ipc=13.4) sim_rate=29296 (inst/sec) elapsed = 0:0:00:05 / Wed Dec  9 00:08:33 2015
GPGPU-Sim PTX: 200000 instructions simulated : ctaid=(5,0,0) tid=(7,0,0)
GPGPU-Sim uArch: cycles simulated: 74615  inst.: 222992 (ipc=14.2) sim_rate=37165 (inst/sec) elapsed = 0:0:00:06 / Wed Dec  9 00:08:34 2015
Branch Status: 1
Branch- 0: 0, 0, 0, 0, 0, 0, 0, 0, 0, 0, 0, 0, 0, 0, 0, 0, 1, 1, 1, 1, 1, 1, 1, 1, 1, 1, 1, 1, 1, 1, 1, 1
Branch- 1: 1, 1, 1, 1, 1, 1, 1, 1, 1, 1, 1, 1, 1, 1, 1, 1, 0, 0, 0, 0, 0, 0, 0, 0, 0, 0, 0, 0, 0, 0, 0, 0
GPGPU-Sim PTX: 300000 instructions simulated : ctaid=(14,0,0) tid=(7,0,0)
Branch Status: 1
Branch- 0: 0, 0, 0, 0, 0, 0, 0, 0, 0, 0, 0, 0, 0, 0, 0, 0, 1, 1, 1, 1, 1, 1, 1, 1, 1, 1, 1, 1, 1, 1, 1, 1
Branch- 1: 1, 1, 1, 1, 1, 1, 1, 1, 1, 1, 1, 1, 1, 1, 1, 1, 0, 0, 0, 0, 0, 0, 0, 0, 0, 0, 0, 0, 0, 0, 0, 0
Branch Status: 1
Branch- 0: 0, 0, 0, 0, 0, 0, 0, 0, 0, 0, 0, 0, 0, 0, 0, 0, 1, 1, 1, 1, 1, 1, 1, 1, 1, 1, 1, 1, 1, 1, 1, 1
Branch- 1: 1, 1, 1, 1, 1, 1, 1, 1, 1, 1, 1, 1, 1, 1, 1, 1, 0, 0, 0, 0, 0, 0, 0, 0, 0, 0, 0, 0, 0, 0, 0, 0
Branch Status: 1
Branch- 0: 0, 0, 0, 0, 0, 0, 0, 0, 0, 0, 0, 0, 0, 0, 0, 0, 1, 1, 1, 1, 1, 1, 1, 1, 1, 1, 1, 1, 1, 1, 1, 1
Branch- 1: 1, 1, 1, 1, 1, 1, 1, 1, 1, 1, 1, 1, 1, 1, 1, 1, 0, 0, 0, 0, 0, 0, 0, 0, 0, 0, 0, 0, 0, 0, 0, 0
Branch Status: 1
Branch- 0: 0, 0, 0, 0, 0, 0, 0, 0, 0, 0, 0, 0, 0, 0, 0, 0, 1, 1, 1, 1, 1, 1, 1, 1, 1, 1, 1, 1, 1, 1, 1, 1
Branch- 1: 1, 1, 1, 1, 1, 1, 1, 1, 1, 1, 1, 1, 1, 1, 1, 1, 0, 0, 0, 0, 0, 0, 0, 0, 0, 0, 0, 0, 0, 0, 0, 0
Branch Status: 1
Branch- 0: 0, 0, 0, 0, 0, 0, 0, 0, 0, 0, 0, 0, 0, 0, 0, 0, 1, 1, 1, 1, 1, 1, 1, 1, 1, 1, 1, 1, 1, 1, 1, 1
Branch- 1: 1, 1, 1, 1, 1, 1, 1, 1, 1, 1, 1, 1, 1, 1, 1, 1, 0, 0, 0, 0, 0, 0, 0, 0, 0, 0, 0, 0, 0, 0, 0, 0
Branch Status: 1
Branch- 0: 0, 0, 0, 0, 0, 0, 0, 0, 0, 0, 0, 0, 0, 0, 0, 0, 1, 1, 1, 1, 1, 1, 1, 1, 1, 1, 1, 1, 1, 1, 1, 1
Branch- 1: 1, 1, 1, 1, 1, 1, 1, 1, 1, 1, 1, 1, 1, 1, 1, 1, 0, 0, 0, 0, 0, 0, 0, 0, 0, 0, 0, 0, 0, 0, 0, 0
Branch Status: 1
Branch- 0: 0, 0, 0, 0, 0, 0, 0, 0, 0, 0, 0, 0, 0, 0, 0, 0, 1, 1, 1, 1, 1, 1, 1, 1, 1, 1, 1, 1, 1, 1, 1, 1
Branch- 1: 1, 1, 1, 1, 1, 1, 1, 1, 1, 1, 1, 1, 1, 1, 1, 1, 0, 0, 0, 0, 0, 0, 0, 0, 0, 0, 0, 0, 0, 0, 0, 0
Branch Status: 1
Branch- 0: 0, 0, 0, 0, 0, 0, 0, 0, 0, 0, 0, 0, 0, 0, 0, 0, 1, 1, 1, 1, 1, 1, 1, 1, 1, 1, 1, 1, 1, 1, 1, 1
Branch- 1: 1, 1, 1, 1, 1, 1, 1, 1, 1, 1, 1, 1, 1, 1, 1, 1, 0, 0, 0, 0, 0, 0, 0, 0, 0, 0, 0, 0, 0, 0, 0, 0
Branch Status: 1
Branch- 0: 0, 0, 0, 0, 0, 0, 0, 0, 0, 0, 0, 0, 0, 0, 0, 0, 1, 1, 1, 1, 1, 1, 1, 1, 1, 1, 1, 1, 1, 1, 1, 1
Branch- 1: 1, 1, 1, 1, 1, 1, 1, 1, 1, 1, 1, 1, 1, 1, 1, 1, 0, 0, 0, 0, 0, 0, 0, 0, 0, 0, 0, 0, 0, 0, 0, 0
Branch Status: 1
Branch- 0: 0, 0, 0, 0, 0, 0, 0, 0, 0, 0, 0, 0, 0, 0, 0, 0, 1, 1, 1, 1, 1, 1, 1, 1, 1, 1, 1, 1, 1, 1, 1, 1
Branch- 1: 1, 1, 1, 1, 1, 1, 1, 1, 1, 1, 1, 1, 1, 1, 1, 1, 0, 0, 0, 0, 0, 0, 0, 0, 0, 0, 0, 0, 0, 0, 0, 0
Branch Status: 1
Branch- 0: 0, 0, 0, 0, 0, 0, 0, 0, 0, 0, 0, 0, 0, 0, 0, 0, 1, 1, 1, 1, 1, 1, 1, 1, 1, 1, 1, 1, 1, 1, 1, 1
Branch- 1: 1, 1, 1, 1, 1, 1, 1, 1, 1, 1, 1, 1, 1, 1, 1, 1, 0, 0, 0, 0, 0, 0, 0, 0, 0, 0, 0, 0, 0, 0, 0, 0
Branch Status: 1
Branch- 0: 0, 0, 0, 0, 0, 0, 0, 0, 0, 0, 0, 0, 0, 0, 0, 0, 1, 1, 1, 1, 1, 1, 1, 1, 1, 1, 1, 1, 1, 1, 1, 1
Branch- 1: 1, 1, 1, 1, 1, 1, 1, 1, 1, 1, 1, 1, 1, 1, 1, 1, 0, 0, 0, 0, 0, 0, 0, 0, 0, 0, 0, 0, 0, 0, 0, 0
Branch Status: 1
Branch- 0: 0, 0, 0, 0, 0, 0, 0, 0, 0, 0, 0, 0, 0, 0, 0, 0, 1, 1, 1, 1, 1, 1, 1, 1, 1, 1, 1, 1, 1, 1, 1, 1
Branch- 1: 1, 1, 1, 1, 1, 1, 1, 1, 1, 1, 1, 1, 1, 1, 1, 1, 0, 0, 0, 0, 0, 0, 0, 0, 0, 0, 0, 0, 0, 0, 0, 0
Branch Status: 1
Branch- 0: 0, 0, 0, 0, 0, 0, 0, 0, 0, 0, 0, 0, 0, 0, 0, 0, 1, 1, 1, 1, 1, 1, 1, 1, 1, 1, 1, 1, 1, 1, 1, 1
Branch- 1: 1, 1, 1, 1, 1, 1, 1, 1, 1, 1, 1, 1, 1, 1, 1, 1, 0, 0, 0, 0, 0, 0, 0, 0, 0, 0, 0, 0, 0, 0, 0, 0
GPGPU-Sim uArch: cycles simulated: 80115  inst.: 304240 (ipc=14.4) sim_rate=43462 (inst/sec) elapsed = 0:0:00:07 / Wed Dec  9 00:08:35 2015
GPGPU-Sim PTX: 400000 instructions simulated : ctaid=(5,0,0) tid=(23,0,0)
GPGPU-Sim uArch: cycles simulated: 84615  inst.: 456512 (ipc=18.5) sim_rate=57064 (inst/sec) elapsed = 0:0:00:08 / Wed Dec  9 00:08:36 2015
GPGPU-Sim PTX: 500000 instructions simulated : ctaid=(6,0,0) tid=(23,0,0)
GPGPU-Sim PTX: 600000 instructions simulated : ctaid=(13,0,0) tid=(23,0,0)
GPGPU-Sim uArch: cycles simulated: 89615  inst.: 649632 (ipc=22.3) sim_rate=72181 (inst/sec) elapsed = 0:0:00:09 / Wed Dec  9 00:08:37 2015
GPGPU-Sim PTX: 700000 instructions simulated : ctaid=(3,0,0) tid=(23,0,0)
GPGPU-Sim PTX: 800000 instructions simulated : ctaid=(11,0,0) tid=(23,0,0)
GPGPU-Sim uArch: cycles simulated: 94115  inst.: 823728 (ipc=24.7) sim_rate=82372 (inst/sec) elapsed = 0:0:00:10 / Wed Dec  9 00:08:38 2015
GPGPU-Sim PTX: 900000 instructions simulated : ctaid=(0,0,0) tid=(23,0,0)
GPGPU-Sim PTX: 1000000 instructions simulated : ctaid=(12,0,0) tid=(23,0,0)
GPGPU-Sim uArch: cycles simulated: 98615  inst.: 997600 (ipc=26.4) sim_rate=90690 (inst/sec) elapsed = 0:0:00:11 / Wed Dec  9 00:08:39 2015
GPGPU-Sim PTX: 1100000 instructions simulated : ctaid=(13,0,0) tid=(23,0,0)
GPGPU-Sim PTX: 1200000 instructions simulated : ctaid=(11,0,0) tid=(23,0,0)
GPGPU-Sim uArch: cycles simulated: 103615  inst.: 1191936 (ipc=28.0) sim_rate=99328 (inst/sec) elapsed = 0:0:00:12 / Wed Dec  9 00:08:40 2015
GPGPU-Sim PTX: 1300000 instructions simulated : ctaid=(8,0,0) tid=(23,0,0)
GPGPU-Sim PTX: 1400000 instructions simulated : ctaid=(4,0,0) tid=(7,0,0)
GPGPU-Sim uArch: cycles simulated: 108115  inst.: 1356352 (ipc=28.8) sim_rate=104334 (inst/sec) elapsed = 0:0:00:13 / Wed Dec  9 00:08:41 2015
GPGPU-Sim PTX: 1500000 instructions simulated : ctaid=(0,0,0) tid=(7,0,0)
GPGPU-Sim uArch: cycles simulated: 112615  inst.: 1538720 (ipc=29.9) sim_rate=109908 (inst/sec) elapsed = 0:0:00:14 / Wed Dec  9 00:08:42 2015
GPGPU-Sim PTX: 1600000 instructions simulated : ctaid=(14,0,0) tid=(7,0,0)
GPGPU-Sim PTX: 1700000 instructions simulated : ctaid=(8,0,0) tid=(7,0,0)
GPGPU-Sim PTX: 1800000 instructions simulated : ctaid=(2,0,0) tid=(7,0,0)
GPGPU-Sim uArch: cycles simulated: 117615  inst.: 1741600 (ipc=30.9) sim_rate=116106 (inst/sec) elapsed = 0:0:00:15 / Wed Dec  9 00:08:43 2015
GPGPU-Sim PTX: 1900000 instructions simulated : ctaid=(0,0,0) tid=(7,0,0)
GPGPU-Sim uArch: cycles simulated: 122115  inst.: 1924240 (ipc=31.6) sim_rate=120265 (inst/sec) elapsed = 0:0:00:16 / Wed Dec  9 00:08:44 2015
GPGPU-Sim PTX: 2000000 instructions simulated : ctaid=(2,0,0) tid=(7,0,0)
GPGPU-Sim PTX: 2100000 instructions simulated : ctaid=(7,0,0) tid=(7,0,0)
Branch Status: 1
Branch- 0: 0, 0, 0, 0, 0, 0, 0, 0, 0, 0, 0, 0, 0, 0, 0, 0, 1, 1, 1, 1, 1, 1, 1, 1, 1, 1, 1, 1, 1, 1, 1, 1
Branch- 1: 1, 1, 1, 1, 1, 1, 1, 1, 1, 1, 1, 1, 1, 1, 1, 1, 0, 0, 0, 0, 0, 0, 0, 0, 0, 0, 0, 0, 0, 0, 0, 0
GPGPU-Sim PTX: 2200000 instructions simulated : ctaid=(6,0,0) tid=(7,0,0)
GPGPU-Sim uArch: cycles simulated: 127115  inst.: 2126496 (ipc=32.3) sim_rate=125088 (inst/sec) elapsed = 0:0:00:17 / Wed Dec  9 00:08:45 2015
Branch Status: 1
Branch- 0: 0, 0, 0, 0, 0, 0, 0, 0, 0, 0, 0, 0, 0, 0, 0, 0, 1, 1, 1, 1, 1, 1, 1, 1, 1, 1, 1, 1, 1, 1, 1, 1
Branch- 1: 1, 1, 1, 1, 1, 1, 1, 1, 1, 1, 1, 1, 1, 1, 1, 1, 0, 0, 0, 0, 0, 0, 0, 0, 0, 0, 0, 0, 0, 0, 0, 0
GPGPU-Sim PTX: 2300000 instructions simulated : ctaid=(5,0,0) tid=(7,0,0)
Branch Status: 1
Branch- 0: 0, 0, 0, 0, 0, 0, 0, 0, 0, 0, 0, 0, 0, 0, 0, 0, 1, 1, 1, 1, 1, 1, 1, 1, 1, 1, 1, 1, 1, 1, 1, 1
Branch- 1: 1, 1, 1, 1, 1, 1, 1, 1, 1, 1, 1, 1, 1, 1, 1, 1, 0, 0, 0, 0, 0, 0, 0, 0, 0, 0, 0, 0, 0, 0, 0, 0
Branch Status: 1
Branch- 0: 0, 0, 0, 0, 0, 0, 0, 0, 0, 0, 0, 0, 0, 0, 0, 0, 1, 1, 1, 1, 1, 1, 1, 1, 1, 1, 1, 1, 1, 1, 1, 1
Branch- 1: 1, 1, 1, 1, 1, 1, 1, 1, 1, 1, 1, 1, 1, 1, 1, 1, 0, 0, 0, 0, 0, 0, 0, 0, 0, 0, 0, 0, 0, 0, 0, 0
Branch Status: 1
Branch- 0: 0, 0, 0, 0, 0, 0, 0, 0, 0, 0, 0, 0, 0, 0, 0, 0, 1, 1, 1, 1, 1, 1, 1, 1, 1, 1, 1, 1, 1, 1, 1, 1
Branch- 1: 1, 1, 1, 1, 1, 1, 1, 1, 1, 1, 1, 1, 1, 1, 1, 1, 0, 0, 0, 0, 0, 0, 0, 0, 0, 0, 0, 0, 0, 0, 0, 0
Branch Status: 1
Branch- 0: 0, 0, 0, 0, 0, 0, 0, 0, 0, 0, 0, 0, 0, 0, 0, 0, 1, 1, 1, 1, 1, 1, 1, 1, 1, 1, 1, 1, 1, 1, 1, 1
Branch- 1: 1, 1, 1, 1, 1, 1, 1, 1, 1, 1, 1, 1, 1, 1, 1, 1, 0, 0, 0, 0, 0, 0, 0, 0, 0, 0, 0, 0, 0, 0, 0, 0
Branch Status: 1
Branch- 0: 0, 0, 0, 0, 0, 0, 0, 0, 0, 0, 0, 0, 0, 0, 0, 0, 1, 1, 1, 1, 1, 1, 1, 1, 1, 1, 1, 1, 1, 1, 1, 1
Branch- 1: 1, 1, 1, 1, 1, 1, 1, 1, 1, 1, 1, 1, 1, 1, 1, 1, 0, 0, 0, 0, 0, 0, 0, 0, 0, 0, 0, 0, 0, 0, 0, 0
Branch Status: 1
Branch- 0: 0, 0, 0, 0, 0, 0, 0, 0, 0, 0, 0, 0, 0, 0, 0, 0, 1, 1, 1, 1, 1, 1, 1, 1, 1, 1, 1, 1, 1, 1, 1, 1
Branch- 1: 1, 1, 1, 1, 1, 1, 1, 1, 1, 1, 1, 1, 1, 1, 1, 1, 0, 0, 0, 0, 0, 0, 0, 0, 0, 0, 0, 0, 0, 0, 0, 0
Branch Status: 1
Branch- 0: 0, 0, 0, 0, 0, 0, 0, 0, 0, 0, 0, 0, 0, 0, 0, 0, 1, 1, 1, 1, 1, 1, 1, 1, 1, 1, 1, 1, 1, 1, 1, 1
Branch- 1: 1, 1, 1, 1, 1, 1, 1, 1, 1, 1, 1, 1, 1, 1, 1, 1, 0, 0, 0, 0, 0, 0, 0, 0, 0, 0, 0, 0, 0, 0, 0, 0
Branch Status: 1
Branch- 0: 0, 0, 0, 0, 0, 0, 0, 0, 0, 0, 0, 0, 0, 0, 0, 0, 1, 1, 1, 1, 1, 1, 1, 1, 1, 1, 1, 1, 1, 1, 1, 1
Branch- 1: 1, 1, 1, 1, 1, 1, 1, 1, 1, 1, 1, 1, 1, 1, 1, 1, 0, 0, 0, 0, 0, 0, 0, 0, 0, 0, 0, 0, 0, 0, 0, 0
Branch Status: 1
Branch- 0: 0, 0, 0, 0, 0, 0, 0, 0, 0, 0, 0, 0, 0, 0, 0, 0, 1, 1, 1, 1, 1, 1, 1, 1, 1, 1, 1, 1, 1, 1, 1, 1
Branch- 1: 1, 1, 1, 1, 1, 1, 1, 1, 1, 1, 1, 1, 1, 1, 1, 1, 0, 0, 0, 0, 0, 0, 0, 0, 0, 0, 0, 0, 0, 0, 0, 0
Branch Status: 1
Branch- 0: 0, 0, 0, 0, 0, 0, 0, 0, 0, 0, 0, 0, 0, 0, 0, 0, 1, 1, 1, 1, 1, 1, 1, 1, 1, 1, 1, 1, 1, 1, 1, 1
Branch- 1: 1, 1, 1, 1, 1, 1, 1, 1, 1, 1, 1, 1, 1, 1, 1, 1, 0, 0, 0, 0, 0, 0, 0, 0, 0, 0, 0, 0, 0, 0, 0, 0
Branch Status: 1
Branch- 0: 0, 0, 0, 0, 0, 0, 0, 0, 0, 0, 0, 0, 0, 0, 0, 0, 1, 1, 1, 1, 1, 1, 1, 1, 1, 1, 1, 1, 1, 1, 1, 1
Branch- 1: 1, 1, 1, 1, 1, 1, 1, 1, 1, 1, 1, 1, 1, 1, 1, 1, 0, 0, 0, 0, 0, 0, 0, 0, 0, 0, 0, 0, 0, 0, 0, 0
Branch Status: 1
Branch- 0: 0, 0, 0, 0, 0, 0, 0, 0, 0, 0, 0, 0, 0, 0, 0, 0, 1, 1, 1, 1, 1, 1, 1, 1, 1, 1, 1, 1, 1, 1, 1, 1
Branch- 1: 1, 1, 1, 1, 1, 1, 1, 1, 1, 1, 1, 1, 1, 1, 1, 1, 0, 0, 0, 0, 0, 0, 0, 0, 0, 0, 0, 0, 0, 0, 0, 0
Branch Status: 1
Branch- 0: 0, 0, 0, 0, 0, 0, 0, 0, 0, 0, 0, 0, 0, 0, 0, 0, 1, 1, 1, 1, 1, 1, 1, 1, 1, 1, 1, 1, 1, 1, 1, 1
Branch- 1: 1, 1, 1, 1, 1, 1, 1, 1, 1, 1, 1, 1, 1, 1, 1, 1, 0, 0, 0, 0, 0, 0, 0, 0, 0, 0, 0, 0, 0, 0, 0, 0
GPGPU-Sim uArch: cycles simulated: 131615  inst.: 2292080 (ipc=32.6) sim_rate=127337 (inst/sec) elapsed = 0:0:00:18 / Wed Dec  9 00:08:46 2015
GPGPU-Sim uArch: Shader 2 finished CTA #0 (68636,63115), 0 CTAs running
GPGPU-Sim uArch: Shader 2 empty (release kernel 2 '_Z13lud_perimeterPfii').


BRANCH_STATS_PRINT: For Shader_id=2, Kernel(uid=2, name: '_Z13lud_perimeterPfii').
------------------------------------------------------------------------------------------------
          PC         TYPE       TARGET  INSTANCES        TAKEN       OCCUPANCY    DYN_COUNT
------------------------------------------------------------------------------------------------
         5a0    extrinsic          720         32     0.500000        0.500000            1
         758    extrinsic          7e0        144     0.111111        0.055556            9
         7d8    extrinsic          748        128     1.000000        0.500000            8
         818    extrinsic          8a0        272     0.058824        0.029412           17
         898    extrinsic          808        256     1.000000        0.500000           16
         5d0    extrinsic          658        144     0.111111        0.055556            9
         650    extrinsic          5c0        128     1.000000        0.500000            8
         678    extrinsic          718        272     0.058824        0.029412           17
         710    extrinsic          668        256     1.000000        0.500000           16
         718    extrinsic          8a0         16     1.000000        0.500000            1
         8c0    extrinsic          a08         32     0.500000        0.500000            1
         a30    intrinsic          c40        272     0.058824        0.029412           17
         a50    intrinsic          b38       2176     0.117647        0.058824          136
         c38    intrinsic          a20        256     1.000000        0.500000           16
         b30    intrinsic          a40       1920     1.000000        0.500000          120
         8e8    intrinsic          a00        256     0.062500        0.031250           16
         908    intrinsic          9f0       2160     0.111111        0.055556          135
         9e8    intrinsic          8f8       1920     1.000000        0.500000          120
[...]
gpgpu_stall_shd_mem[l_mem_ld][wb_rsrv_fail] = 0
gpgpu_stall_shd_mem[l_mem_st][mshr_rc] = 0
gpgpu_stall_shd_mem[l_mem_st][icnt_rc] = 0
gpgpu_stall_shd_mem[l_mem_ld][wb_icnt_rc] = 0
gpgpu_stall_shd_mem[l_mem_ld][wb_rsrv_fail] = 0
gpu_reg_bank_conflict_stalls = 0
Warp Occupancy Distribution:
Stall:629116	W0_Idle:10289647	W0_Scoreboard:7292607	W1:16304	W2:15232	W3:14160	W4:13088	W5:12016	W6:10944	W7:9872	W8:8800	W9:7728	W10:6656	W11:5584	W12:4512	W13:3440	W14:2368	W15:1296	W16:1207976	W17:0	W18:0	W19:0	W20:0	W21:0	W22:0	W23:0	W24:0	W25:0	W26:0	W27:0	W28:0	W29:0	W30:0	W31:0	W32:4614960
traffic_breakdown_coretomem[CONST_ACC_R] = 120 {8:15,}
traffic_breakdown_coretomem[GLOBAL_ACC_R] = 441608 {8:55201,}
traffic_breakdown_coretomem[GLOBAL_ACC_W] = 1713600 {72:23800,}
traffic_breakdown_coretomem[INST_ACC_R] = 24696 {8:3087,}
traffic_breakdown_coretomem[LOCAL_ACC_R] = 2952 {8:369,}
traffic_breakdown_coretomem[LOCAL_ACC_W] = 454272 {40:384,72:6096,}
traffic_breakdown_memtocore[CONST_ACC_R] = 1080 {72:15,}
traffic_breakdown_memtocore[GLOBAL_ACC_R] = 7507336 {136:55201,}
traffic_breakdown_memtocore[GLOBAL_ACC_W] = 190400 {8:23800,}
traffic_breakdown_memtocore[INST_ACC_R] = 419832 {136:3087,}
traffic_breakdown_memtocore[LOCAL_ACC_R] = 50184 {136:369,}
traffic_breakdown_memtocore[LOCAL_ACC_W] = 51840 {8:6480,}
maxmrqlatency = 51 
maxdqlatency = 0 
maxmflatency = 1506 
averagemflatency = 241 
max_icnt2mem_latency = 2770 
max_icnt2sh_latency = 2177552 
mrq_lat_table:2136 	17 	23 	25 	13 	4 	0 	0 	0 	0 	0 	0 	0 	0 	0 	0 	0 	0 	0 	0 	0 	0 	0 	0 	0 	0 	0 	0 	0 	0 	0 	0 	
dq_lat_table:0 	0 	0 	0 	0 	0 	0 	0 	0 	0 	0 	0 	0 	0 	0 	0 	0 	0 	0 	0 	0 	0 	0 	0 	0 	0 	0 	0 	0 	0 	0 	0 	
mf_lat_table:0 	0 	0 	0 	0 	0 	0 	66898 	10011 	7631 	1325 	0 	0 	0 	0 	0 	0 	0 	0 	0 	0 	0 	0 	0 	0 	0 	0 	0 	0 	0 	0 	0 	
icnt2mem_lat_table:0 	0 	0 	70949 	4085 	1812 	1587 	1931 	3935 	4535 	115 	3 	0 	0 	0 	0 	0 	0 	0 	0 	0 	0 	0 	0 	
icnt2sh_lat_table:0 	0 	0 	19618 	31832 	3991 	144 	0 	0 	0 	0 	0 	3 	12 	15 	30 	857 	4540 	7520 	9359 	7837 	107 	0 	0 	
mf_lat_pw_table:0 	0 	0 	0 	0 	0 	0 	1826 	64 	36 	4 	0 	0 	0 	0 	0 	0 	0 	0 	0 	0 	0 	0 	0 	0 	0 	0 	0 	0 	0 	0 	0 	
maximum concurrent accesses to same row:
dram[0]:        12         2         0         0         0         0         0         0         0         0         0         0         0         0         0         0 
dram[1]:        14         2         0         0         0         0         0         0         0         0         0         0         0         0         0         0 
dram[2]:        14         2         0         0         0         0         0         0         0         0         0         0         0         0         0         0 
dram[3]:        11         8         0         0         0         0         0         0         0         0         0         0         0         0         0         0 
dram[4]:        12         2         0         0         0         0         0         0         0         0         0         0         0         0         0         0 
dram[5]:         2         2         0         0         0         0         0         0         0         0         0         0         0         0         0         0 
maximum service time to same row:
dram[0]:     49416      8550         0         0      1472     11466      3199      6638      3216     10344      3241     18722      3259     24515      3276     30937 
dram[1]:     50109     13363         0         0     11057     11454      6632      7099     10304     10882     18419     18890     24337     24522     30602     31212 
dram[2]:     57106     10931         0         0     11100      1128      6640      3210     10346      3235     18725      3344     24516      3357     30938      3222 
dram[3]:      8647     24350         0         0     11088     10691      7100      6628     10884     10590     18891     18459     24525     24404     31213     30797 
dram[4]:      8729     12790         0         0      1816     10734      3204      6641      3229     10716      3247     18785      3265     24754      3282     31057 
dram[5]:     61216      7791         0         0     11424     10722      6629      7104     10302     11240     18418     18894     24335     24638     30600     31319 
average row accesses per activate:
dram[0]:  2.714286  4.000000      -nan      -nan 10.000000 10.000000 32.000000 32.000000 32.000000 32.000000 32.000000 32.000000 32.000000 32.000000 32.000000 32.000000 
dram[1]:  6.000000  6.000000      -nan      -nan 10.000000 10.000000 32.000000 32.000000 32.000000 32.000000 32.000000 32.000000 32.000000 32.000000 32.000000 32.000000 
dram[2]:  6.000000  4.000000      -nan      -nan 10.000000 12.000000 32.000000 32.000000 32.000000 32.000000 32.000000 32.000000 32.000000 32.000000 32.000000 32.000000 
dram[3]:  3.200000  5.000000      -nan      -nan 10.000000 12.000000 32.000000 32.000000 32.000000 32.000000 32.000000 32.000000 32.000000 32.000000 32.000000 32.000000 
dram[4]:  5.333333  5.500000      -nan      -nan 10.000000 12.000000 32.000000 32.000000 32.000000 32.000000 32.000000 32.000000 32.000000 32.000000 32.000000 32.000000 
dram[5]:  7.000000  4.000000      -nan      -nan 10.000000 12.000000 32.000000 32.000000 32.000000 32.000000 32.000000 32.000000 32.000000 32.000000 32.000000 32.000000 
average row locality = 2218/110 = 20.163637
number of total memory accesses made:
dram[0]:         0         0         0         0         0         0         0         0         0         0         0         0         0         0         0         0 
dram[1]:         0         0         0         0         0         0         0         0         0         0         0         0         0         0         0         0 
dram[2]:         0         0         0         0         0         0         0         0         0         0         0         0         0         0         0         0 
dram[3]:         0         0         0         0         0         0         0         0         0         0         0         0         0         0         0         0 
dram[4]:         0         0         0         0         0         0         0         0         0         0         0         0         0         0         0         0 
dram[5]:         0         0         0         0         0         0         0         0         0         0         0         0         0         0         0         0 
total accesses: 0
min_bank_accesses = 0!
min_chip_accesses = 0!
number of total read accesses:
dram[0]:        13        10         0         0        10        10        32        32        32        32        32        32        32        32        32        32 
dram[1]:        12        10         0         0        10        10        32        32        32        32        32        32        32        32        32        32 
dram[2]:        12        10         0         0        10        12        32        32        32        32        32        32        32        32        32        32 
dram[3]:        12         8         0         0        10        12        32        32        32        32        32        32        32        32        32        32 
dram[4]:        12         8         0         0        10        12        32        32        32        32        32        32        32        32        32        32 
dram[5]:        10         8         0         0        10        12        32        32        32        32        32        32        32        32        32        32 
total reads: 2173
min_bank_accesses = 0!
chip skew: 364/360 = 1.01
number of total write accesses:
dram[0]:         6         2         0         0         0         0         0         0         0         0         0         0         0         0         0         0 
dram[1]:         6         2         0         0         0         0         0         0         0         0         0         0         0         0         0         0 
dram[2]:         6         2         0         0         0         0         0         0         0         0         0         0         0         0         0         0 
dram[3]:         4         2         0         0         0         0         0         0         0         0         0         0         0         0         0         0 
dram[4]:         4         3         0         0         0         0         0         0         0         0         0         0         0         0         0         0 
dram[5]:         4         4         0         0         0         0         0         0         0         0         0         0         0         0         0         0 
total reads: 45
min_bank_accesses = 0!
chip skew: 8/6 = 1.33
average mf latency per bank:
dram[0]:       7138      4448    none      none        2924      2759     12171      7138     22367      7015     15478      8485      7325      9985      5320     10140
dram[1]:       6696      4224    none      none        2417      1769      6879      6826      8522      7277     14256      8796     14682      9594      9669      9460
dram[2]:       6402      4088    none      none        2719      2764      6782     12758      7745     22783      8579     15305      9787      6939      9908      5328
dram[3]:       5238      4106    none      none        1745      2244      6797      7414      7934      8553      9003     13989      9303     14050      9421      9530
dram[4]:       5882      5312    none      none        2894      2600     12929      7324     23069      7196     15690      8540      7239     10085      5321     10313
dram[5]:       7108      6604    none      none        2344      1605      7588      6773      8364      7790     14553      8804     14701      9380     10080      9568
maximum mf latency per bank:
dram[0]:        287       277         0         0       268       268      1440       763      1346       646      1330       796      1121      1181       267      1183
dram[1]:        274       277         0         0       306       268       780       798      1292       604      1379       688      1455       601      1091       329
dram[2]:        278       265         0         0       270       268       841      1449       713      1405       740      1314      1157      1095      1188       298
dram[3]:        281       268         0         0       268       301       786       836       759      1340       795      1311       480      1257       341       954
dram[4]:        279       300         0         0       268       268      1506       841      1451       696      1439       792      1091      1251       273      1259
dram[5]:        270       262         0         0       306       268       837       779      1344       771      1299       754      1366       476      1085       364
Memory Partition 0: 
Cache L2_bank_000:
MSHR contents

Cache L2_bank_001:
MSHR contents

In Dram Latency Queue (total = 0): 
DRAM[0]: 16 bks, busW=4 BL=8 CL=12, tRRD=2 tCCD=6, tRCD=12 tRAS=28 tRP=12 tRC=40
n_cmd=2874333 n_nop=2873569 n_act=22 n_pre=8 n_req=371 n_rd=726 n_write=8 bw_util=0.0005107
n_activity=5751 dram_eff=0.2553
bk0: 26a 2874002i bk1: 20a 2874168i bk2: 0a 2874328i bk3: 0a 2874331i bk4: 20a 2874280i bk5: 20a 2874278i bk6: 64a 2874189i bk7: 64a 2874181i bk8: 64a 2874192i bk9: 64a 2874191i bk10: 64a 2874191i bk11: 64a 2874194i bk12: 64a 2874194i bk13: 64a 2874189i bk14: 64a 2874193i bk15: 64a 2874187i 
dram_util_bins: 0 0 0 0 0 0 0 0 0 0
dram_eff_bins: 0 0 0 0 0 0 0 0 0 0
mrqq: max=5 avg=0.000105764
Memory Partition 1: 
Cache L2_bank_002:
MSHR contents

Cache L2_bank_003:
MSHR contents

In Dram Latency Queue (total = 0): 
DRAM[1]: 16 bks, busW=4 BL=8 CL=12, tRRD=2 tCCD=6, tRCD=12 tRAS=28 tRP=12 tRC=40
n_cmd=2874333 n_nop=2873581 n_act=17 n_pre=3 n_req=370 n_rd=724 n_write=8 bw_util=0.0005093
n_activity=5541 dram_eff=0.2642
bk0: 24a 2874116i bk1: 20a 2874218i bk2: 0a 2874329i bk3: 0a 2874333i bk4: 20a 2874283i bk5: 20a 2874282i bk6: 64a 2874182i bk7: 64a 2874178i bk8: 64a 2874193i bk9: 64a 2874193i bk10: 64a 2874192i bk11: 64a 2874176i bk12: 64a 2874189i bk13: 64a 2874185i bk14: 64a 2874188i bk15: 64a 2874188i 
dram_util_bins: 0 0 0 0 0 0 0 0 0 0
dram_eff_bins: 0 0 0 0 0 0 0 0 0 0
mrqq: max=3 avg=6.74939e-05
Memory Partition 2: 
Cache L2_bank_004:
MSHR contents

Cache L2_bank_005:
MSHR contents

In Dram Latency Queue (total = 0): 
DRAM[2]: 16 bks, busW=4 BL=8 CL=12, tRRD=2 tCCD=6, tRCD=12 tRAS=28 tRP=12 tRC=40
n_cmd=2874333 n_nop=2873575 n_act=18 n_pre=4 n_req=372 n_rd=728 n_write=8 bw_util=0.0005121
n_activity=5675 dram_eff=0.2594
bk0: 24a 2874126i bk1: 20a 2874218i bk2: 0a 2874331i bk3: 0a 2874335i bk4: 20a 2874282i bk5: 24a 2874274i bk6: 64a 2874183i bk7: 64a 2874189i bk8: 64a 2874191i bk9: 64a 2874187i bk10: 64a 2874187i bk11: 64a 2874190i bk12: 64a 2874189i bk13: 64a 2874186i bk14: 64a 2874192i bk15: 64a 2874192i 
dram_util_bins: 0 0 0 0 0 0 0 0 0 0
dram_eff_bins: 0 0 0 0 0 0 0 0 0 0
mrqq: max=2 avg=3.93135e-05
Memory Partition 3: 
Cache L2_bank_006:
MSHR contents

Cache L2_bank_007:
MSHR contents

In Dram Latency Queue (total = 0): 
DRAM[3]: 16 bks, busW=4 BL=8 CL=12, tRRD=2 tCCD=6, tRCD=12 tRAS=28 tRP=12 tRC=40
n_cmd=2874333 n_nop=2873579 n_act=19 n_pre=5 n_req=368 n_rd=724 n_write=6 bw_util=0.0005079
n_activity=5623 dram_eff=0.2596
bk0: 24a 2874077i bk1: 16a 2874222i bk2: 0a 2874329i bk3: 0a 2874331i bk4: 20a 2874282i bk5: 24a 2874275i bk6: 64a 2874185i bk7: 64a 2874191i bk8: 64a 2874192i bk9: 64a 2874189i bk10: 64a 2874193i bk11: 64a 2874191i bk12: 64a 2874190i bk13: 64a 2874184i bk14: 64a 2874191i bk15: 64a 2874192i 
dram_util_bins: 0 0 0 0 0 0 0 0 0 0
dram_eff_bins: 0 0 0 0 0 0 0 0 0 0
mrqq: max=4 avg=7.37562e-05
Memory Partition 4: 
Cache L2_bank_008:
MSHR contents

Cache L2_bank_009:
MSHR contents

In Dram Latency Queue (total = 0): 
DRAM[4]: 16 bks, busW=4 BL=8 CL=12, tRRD=2 tCCD=6, tRCD=12 tRAS=28 tRP=12 tRC=40
n_cmd=2874333 n_nop=2873582 n_act=17 n_pre=3 n_req=369 n_rd=724 n_write=7 bw_util=0.0005086
n_activity=5628 dram_eff=0.2598
bk0: 24a 2874170i bk1: 16a 2874192i bk2: 0a 2874329i bk3: 0a 2874332i bk4: 20a 2874281i bk5: 24a 2874270i bk6: 64a 2874188i bk7: 64a 2874179i bk8: 64a 2874190i bk9: 64a 2874183i bk10: 64a 2874191i bk11: 64a 2874177i bk12: 64a 2874195i bk13: 64a 2874194i bk14: 64a 2874196i bk15: 64a 2874194i 
dram_util_bins: 0 0 0 0 0 0 0 0 0 0
dram_eff_bins: 0 0 0 0 0 0 0 0 0 0
mrqq: max=3 avg=7.37562e-05
Memory Partition 5: 
Cache L2_bank_010:
MSHR contents

Cache L2_bank_011:
MSHR contents

In Dram Latency Queue (total = 0): 
DRAM[5]: 16 bks, busW=4 BL=8 CL=12, tRRD=2 tCCD=6, tRCD=12 tRAS=28 tRP=12 tRC=40
n_cmd=2874333 n_nop=2873585 n_act=17 n_pre=3 n_req=368 n_rd=720 n_write=8 bw_util=0.0005066
n_activity=5501 dram_eff=0.2647
bk0: 20a 2874197i bk1: 16a 2874192i bk2: 0a 2874328i bk3: 0a 2874331i bk4: 20a 2874281i bk5: 24a 2874274i bk6: 64a 2874185i bk7: 64a 2874181i bk8: 64a 2874188i bk9: 64a 2874191i bk10: 64a 2874192i bk11: 64a 2874188i bk12: 64a 2874190i bk13: 64a 2874179i bk14: 64a 2874192i bk15: 64a 2874188i 
dram_util_bins: 0 0 0 0 0 0 0 0 0 0
dram_eff_bins: 0 0 0 0 0 0 0 0 0 0
mrqq: max=3 avg=5.74046e-05

========= L2 cache stats =========
L2_cache_bank[0]: Access = 7090, Miss = 183, Miss_rate = 0.026, Pending_hits = 5, Reservation_fails = 0
L2_cache_bank[1]: Access = 7519, Miss = 180, Miss_rate = 0.024, Pending_hits = 76, Reservation_fails = 202
L2_cache_bank[2]: Access = 7393, Miss = 182, Miss_rate = 0.025, Pending_hits = 70, Reservation_fails = 0
L2_cache_bank[3]: Access = 7933, Miss = 180, Miss_rate = 0.023, Pending_hits = 78, Reservation_fails = 191
L2_cache_bank[4]: Access = 7992, Miss = 182, Miss_rate = 0.023, Pending_hits = 79, Reservation_fails = 106
L2_cache_bank[5]: Access = 6279, Miss = 182, Miss_rate = 0.029, Pending_hits = 12, Reservation_fails = 201
L2_cache_bank[6]: Access = 8156, Miss = 182, Miss_rate = 0.022, Pending_hits = 76, Reservation_fails = 99
L2_cache_bank[7]: Access = 6866, Miss = 180, Miss_rate = 0.026, Pending_hits = 71, Reservation_fails = 0
L2_cache_bank[8]: Access = 6698, Miss = 182, Miss_rate = 0.027, Pending_hits = 6, Reservation_fails = 0
L2_cache_bank[9]: Access = 7595, Miss = 180, Miss_rate = 0.024, Pending_hits = 79, Reservation_fails = 0
L2_cache_bank[10]: Access = 7251, Miss = 180, Miss_rate = 0.025, Pending_hits = 75, Reservation_fails = 7
L2_cache_bank[11]: Access = 8180, Miss = 180, Miss_rate = 0.022, Pending_hits = 75, Reservation_fails = 0
L2_total_cache_accesses = 88952
L2_total_cache_misses = 2173
L2_total_cache_miss_rate = 0.0244
L2_total_cache_pending_hits = 702
L2_total_cache_reservation_fails = 806
L2_total_cache_breakdown:
	L2_cache_stats_breakdown[GLOBAL_ACC_R][HIT] = 52480
	L2_cache_stats_breakdown[GLOBAL_ACC_R][HIT_RESERVED] = 673
	L2_cache_stats_breakdown[GLOBAL_ACC_R][MISS] = 2048
	L2_cache_stats_breakdown[LOCAL_ACC_R][HIT] = 324
	L2_cache_stats_breakdown[LOCAL_ACC_R][MISS] = 45
	L2_cache_stats_breakdown[CONST_ACC_R][HIT] = 14
	L2_cache_stats_breakdown[CONST_ACC_R][MISS] = 1
	L2_cache_stats_breakdown[GLOBAL_ACC_W][HIT] = 23800
	L2_cache_stats_breakdown[LOCAL_ACC_W][HIT] = 6435
	L2_cache_stats_breakdown[LOCAL_ACC_W][MISS] = 45
	L2_cache_stats_breakdown[INST_ACC_R][HIT] = 3024
	L2_cache_stats_breakdown[INST_ACC_R][HIT_RESERVED] = 29
	L2_cache_stats_breakdown[INST_ACC_R][MISS] = 34
	L2_cache_stats_breakdown[INST_ACC_R][RESERVATION_FAIL] = 806
L2_cache_data_port_util = 0.011
L2_cache_fill_port_util = 0.000

icnt_total_pkts_mem_to_simt=323610
icnt_total_pkts_simt_to_mem=149128
LD_mem_lat_dist  0 0 0 0 0 0 0 0 0 0 0 0 0 0 0 0 0 0 0 0 0 0 0 0 0 0 0
ST_mem_lat_dist  0 0 0 0 0 0 0 0 0 0 0 0 0 0 0 0 0 0 0 0 0 0 0 0 0 0 0
----------------------------Interconnect-DETAILS--------------------------------
Class 0:
Packet latency average = 7.12195
	minimum = 6
	maximum = 10
Network latency average = 7.12195
	minimum = 6
	maximum = 10
Slowest packet = 177741
Flit latency average = 6
	minimum = 6
	maximum = 6
Slowest flit = 472390
Fragmentation average = 0
	minimum = 0
	maximum = 0
Injected packet rate average = 0.000104115
	minimum = 0 (at node 0)
	maximum = 0.00140555 (at node 3)
Accepted packet rate average = 0.000104115
	minimum = 0 (at node 0)
	maximum = 0.00140555 (at node 3)
Injected flit rate average = 0.000220927
	minimum = 0 (at node 0)
	maximum = 0.00305108 (at node 3)
Accepted flit rate average= 0.000220927
	minimum = 0 (at node 0)
	maximum = 0.00291395 (at node 3)
Injected packet length average = 2.12195
Accepted packet length average = 2.12195
Total in-flight flits = 0 (0 measured)
====== Overall Traffic Statistics ======
====== Traffic class 0 ======
Packet latency average = 15.6384 (46 samples)
	minimum = 6 (46 samples)
	maximum = 195.326 (46 samples)
Network latency average = 12.4412 (46 samples)
	minimum = 6 (46 samples)
	maximum = 140.196 (46 samples)
Flit latency average = 8.97244 (46 samples)
	minimum = 6 (46 samples)
	maximum = 138.413 (46 samples)
Fragmentation average = 0.00354709 (46 samples)
	minimum = 0 (46 samples)
	maximum = 5.69565 (46 samples)
Injected packet rate average = 0.00635203 (46 samples)
	minimum = 0.00185695 (46 samples)
	maximum = 0.0142978 (46 samples)
Accepted packet rate average = 0.00635203 (46 samples)
	minimum = 0.00185695 (46 samples)
	maximum = 0.0142978 (46 samples)
Injected flit rate average = 0.0171317 (46 samples)
	minimum = 0.00300046 (46 samples)
	maximum = 0.0562092 (46 samples)
Accepted flit rate average = 0.0171317 (46 samples)
	minimum = 0.00329596 (46 samples)
	maximum = 0.0312938 (46 samples)
Injected packet size average = 2.69705 (46 samples)
Accepted packet size average = 2.69705 (46 samples)
Hops average = 1 (46 samples)
----------------------------END-of-Interconnect-DETAILS-------------------------


gpgpu_simulation_time = 0 days, 0 hrs, 7 min, 32 sec (452 sec)
gpgpu_simulation_rate = 358340 (inst/sec)
gpgpu_simulation_rate = 4817 (cycle/sec)
Time consumed(ms): 452500.554000
After LUD
>>>Verify<<<<
